14
Comment line
O 0.0 0.0 2.10417
C 0.324257 0.909062 -0.135862
C -0.662745 0.39916 0.915429
C -1.005393 -0.789435 0.032906
C 1.401074 0.0 -0.720691
C -0.056792 -0.281207 -1.053553
H -1.511336 1.087782 1.102557
H 0.070639 1.847326 -0.66731
H 1.891111 -0.712054 -0.031397
H 2.014568 0.42246 -1.537862
H -0.706871 -1.768298 0.454504
H -2.064442 -0.815194 -0.285308
H -0.494282 0.137602 -1.982188
H 0.800212 -0.437206 1.804603