17
Comment line
C 0.0 0.0 0.0
C -0.8897 0.8897 0.8897
C 0.8897 0.8897 -0.8897
C -0.8897 -0.8897 -0.8897
C 0.8897 -0.8897 0.8897
H -0.2654 1.5138 1.5138
H -1.5138 0.2654 1.5138
H -1.5138 1.5138 0.2654
H 1.5138 0.2654 -1.5138
H 1.5138 1.5138 -0.2654
H 0.2654 1.5138 -1.5138
H -1.5138 -0.2654 -1.5138
H -1.5138 -1.5138 -0.2654
H -0.2654 -1.5138 -1.5138
H 1.5138 -1.5138 0.2654
H 0.2654 -1.5138 1.5138
H 1.5138 -0.2654 1.5138