17
Comment line
O 2.857921 0.0 0.0
N 0.88611 -2.12319 0.0
N -1.745114 -1.409192 0.0
N 1.277619 1.577445 0.0
N -1.099994 1.040245 0.0
N -0.560621 3.351719 0.0
C 0.553025 -0.840701 0.0
C -0.835177 -0.44237 0.0
C -0.053336 -3.050183 0.0
C -1.410619 -2.687133 0.0
C 1.657266 0.277479 0.0
C -0.178567 1.942429 0.0
H 0.223822 -4.09405 0.0
H -2.177819 -3.44734 0.0
H 1.959036 2.344498 0.0
H -1.569547 3.538194 0.0
H 0.215995 4.02215 0.0