960
 Charge is 0 Electron count is 4080 Multiplicity is 1
H -8.05 -0.2548 2.7082
H -7.4853 0.5504 3.93
H -7.2835 0.588 0.4779
C -7.252 0 3.1782
H -6.7969 -0.7866 3.4862
C -6.5433 0.9236 0.9886
N -6.3673 0.7549 2.2857
H -6.2276 3.8889 -0.6593
H -6.0981 1.6629 -1.4125
N -5.534 1.6371 0.504
C -5.4245 3.5436 -1.056
H -5.4043 3.7723 -1.9884
C -5.3843 2.0479 -0.898
C -5.1961 1.3864 2.6604
H -4.8238 1.429 3.5438
C -4.6768 1.9388 1.5437
H -4.6606 3.9255 -0.6163
H -4.5545 1.7118 -1.2453
H -3.8625 2.4437 1.4807
F -9.2159 -2.5905 0
F -8.1344 -0.8842 -1.0271
B -7.9888 -2.1662 -0.4849
F -7.5231 -3.0203 -1.4586
F -7.0632 -2.1047 0.551
H -10.4515 -2.2543 4.3264
H -9.7595 -2.9863 7.0524
H -9.6534 -0.7725 6.4234
C -9.6371 -2.7593 4.2634
H -9.4902 -3.2691 2.2633
C -9.1178 -3.3117 3.1467
C -8.9296 -2.6502 6.7051
H -8.9096 -0.9257 7.7955
C -8.8895 -1.1545 6.8631
N -8.78 -3.061 5.3031
H -8.2159 -3.0351 7.2196
H -8.0863 -0.8092 6.4664
N -7.9466 -3.9432 3.5214
C -7.7707 -3.7744 4.8185
H -7.5171 -5.4847 2.3209
C -7.0619 -4.6981 2.6289
H -7.0305 -4.11 5.3292
H -6.8287 -4.1476 1.8771
H -6.2643 -4.9529 3.0989
F -5.7011 -1.717 5.6463
F -4.6195 -3.4234 4.6192
B -4.4739 -2.1414 5.1614
F -4.0083 -1.2873 4.1877
F -3.5483 -2.2028 6.1973
H -5.2046 -2.0532 -1.3199
H -4.5126 -1.3213 1.4062
H -4.4065 -3.535 0.7772
C -4.3902 -1.5483 -1.3829
H -4.2432 -1.0385 -3.383
C -3.8709 -0.9959 -2.4996
C -3.6827 -1.6574 1.0588
H -3.6627 -3.3818 2.1492
C -3.6426 -3.153 1.2168
N -3.533 -1.2466 -0.3432
H -2.969 -1.2724 1.5733
H -2.8394 -3.4984 0.8201
N -2.6997 -0.3644 -2.1249
C -2.5238 -0.5331 -0.8277
H -2.2702 1.1771 -3.3254
C -1.815 0.3905 -3.0174
H -1.7836 -0.1975 -0.3171
H -1.5818 -0.1599 -3.7692
H -1.0174 0.6453 -2.5474
F -2.0038 2.4952 -0.3902
F -1.5439 3.4108 1.6194
B -1.0783 2.5567 0.6457
F -0.9327 1.2747 1.1879
F 0.1489 2.981 0.1608
H -2.8027 5.3434 -2.9381
H -2.2384 4.5381 -1.7162
H -2.0366 4.5005 -5.1684
C -2.0051 5.0885 -2.4681
H -1.5499 5.8752 -2.16
C -1.2964 4.1649 -4.6577
N -1.1204 4.3337 -3.3605
H -0.9807 1.1997 -6.3055
H -0.8512 3.4256 -7.0588
N -0.2871 3.4515 -5.1423
C -0.1776 1.545 -6.7023
H -0.1574 1.3162 -7.6347
C -0.1374 3.0407 -6.5443
C 0.0508 3.7022 -2.9859
H 0.4231 3.6596 -2.1025
C 0.5701 3.1498 -4.1026
H 0.5863 1.163 -6.2626
H 0.6924 3.3768 -6.8916
H 1.3844 2.6448 -4.1656
F -5.5187 2.5933 -6.0364
F -5.0588 1.6778 -4.0269
B -4.5931 2.5319 -5.0006
F -4.4475 3.8139 -4.4584
F -3.366 2.1075 -5.4855
H -22.7282 -11.4493 -1.3199
H -22.0362 -10.7174 1.4062
H -21.93 -12.9311 0.7772
C -21.9138 -10.9444 -1.3829
H -21.7669 -10.4346 -3.383
C -21.3945 -10.392 -2.4996
C -21.2063 -11.0535 1.0588
H -21.1863 -12.7779 2.1492
C -21.1662 -12.5492 1.2168
N -21.0567 -10.6427 -0.3432
H -20.4926 -10.6685 1.5733
H -20.363 -12.8945 0.8201
N -20.2233 -9.7605 -2.1249
C -20.0474 -9.9292 -0.8277
H -19.7938 -8.219 -3.3254
C -19.3386 -9.0056 -3.0174
H -19.3072 -9.5936 -0.3171
H -19.1054 -9.556 -3.7692
H -18.541 -8.7508 -2.5474
F -19.5274 -6.9009 -0.3902
F -19.0675 -5.9853 1.6194
B -18.6019 -6.8394 0.6457
F -18.4563 -8.1214 1.1879
F -17.3747 -6.4151 0.1608
H -20.3263 -4.0527 -2.9381
H -19.762 -4.858 -1.7162
H -19.5602 -4.8956 -5.1684
C -19.5287 -4.3075 -2.4681
H -19.0736 -3.5209 -2.16
C -18.82 -5.2312 -4.6577
N -18.644 -5.0624 -3.3605
H -18.5043 -8.1964 -6.3055
H -18.3748 -5.9705 -7.0588
N -17.8107 -5.9446 -5.1423
C -17.7012 -7.8511 -6.7023
H -17.681 -8.0799 -7.6347
C -17.661 -6.3554 -6.5443
C -17.4728 -5.6939 -2.9859
H -17.1005 -5.7365 -2.1025
C -16.9535 -6.2463 -4.1026
H -16.9373 -8.2331 -6.2626
H -16.8312 -6.0193 -6.8916
H -16.1392 -6.7513 -4.1656
F -23.0423 -6.8028 -6.0364
F -22.5824 -7.7183 -4.0269
B -22.1167 -6.8642 -5.0006
F -21.9711 -5.5822 -4.4584
F -20.8896 -7.2886 -5.4855
H -20.3263 -4.0527 8.4865
H -19.762 -4.858 9.7084
H -19.5602 -4.8956 6.2562
C -19.5287 -4.3075 8.9565
H -19.0736 -3.5209 9.2646
C -18.82 -5.2312 6.7669
N -18.644 -5.0624 8.0641
H -18.5043 -8.1964 5.1191
H -18.3748 -5.9705 4.3659
N -17.8107 -5.9446 6.2823
C -17.7012 -7.8511 4.7224
H -17.681 -8.0799 3.7899
C -17.661 -6.3554 4.8803
C -17.4728 -5.6939 8.4388
H -17.1005 -5.7365 9.3222
C -16.9535 -6.2463 7.322
H -16.9373 -8.2331 5.162
H -16.8312 -6.0193 4.533
H -16.1392 -6.7513 7.259
F -23.0423 -6.8028 5.3882
F -22.5824 -7.7183 7.3977
B -22.1167 -6.8642 6.4241
F -21.9711 -5.5822 6.9662
F -20.8896 -7.2886 5.9391
H -22.7282 -2.0532 -12.7445
H -22.0362 -1.3213 -10.0185
H -21.93 -3.535 -10.6475
C -21.9138 -1.5483 -12.8075
H -21.7669 -1.0385 -14.8076
C -21.3945 -0.9959 -13.9242
C -21.2063 -1.6574 -10.3658
H -21.1863 -3.3818 -9.2754
C -21.1662 -3.153 -10.2078
N -21.0567 -1.2466 -11.7678
H -20.4926 -1.2724 -9.8513
H -20.363 -3.4984 -10.6046
N -20.2233 -0.3644 -13.5495
C -20.0474 -0.5331 -12.2524
H -19.7938 1.1771 -14.7501
C -19.3386 0.3905 -14.442
H -19.3072 -0.1975 -11.7417
H -19.1054 -0.1599 -15.1939
H -18.541 0.6453 -13.972
F -19.5274 2.4952 -11.8148
F -19.0675 3.4108 -9.8053
B -18.6019 2.5567 -10.7789
F -18.4563 1.2747 -10.2368
F -17.3747 2.981 -11.2638
H -25.5732 -0.2548 2.7082
H -25.0089 0.5504 3.93
H -24.8071 0.588 0.4779
C -24.7756 0 3.1782
H -24.3205 -0.7866 3.4862
C -24.0669 0.9236 0.9886
N -23.8909 0.7549 2.2857
H -23.7512 3.8889 -0.6593
H -23.6217 1.6629 -1.4125
N -23.0576 1.6371 0.504
C -22.9481 3.5436 -1.056
H -22.9279 3.7723 -1.9884
C -22.9079 2.0479 -0.898
C -22.7197 1.3864 2.6604
H -22.3474 1.429 3.5438
C -22.2004 1.9388 1.5437
H -22.1842 3.9255 -0.6163
H -22.0781 1.7118 -1.2453
H -21.3861 2.4437 1.4807
F -26.7395 -2.5905 0
F -25.658 -0.8842 -1.0271
B -25.5124 -2.1662 -0.4849
F -25.0467 -3.0203 -1.4586
F -24.5868 -2.1047 0.551
H -22.7282 -2.0532 -1.3199
H -22.0362 -1.3213 1.4062
H -21.93 -3.535 0.7772
C -21.9138 -1.5483 -1.3829
H -21.7669 -1.0385 -3.383
C -21.3945 -0.9959 -2.4996
C -21.2063 -1.6574 1.0588
H -21.1863 -3.3818 2.1492
C -21.1662 -3.153 1.2168
N -21.0567 -1.2466 -0.3432
H -20.4926 -1.2724 1.5733
H -20.363 -3.4984 0.8201
N -20.2233 -0.3644 -2.1249
C -20.0474 -0.5331 -0.8277
H -19.7938 1.1771 -3.3254
C -19.3386 0.3905 -3.0174
H -19.3072 -0.1975 -0.3171
H -19.1054 -0.1599 -3.7692
H -18.541 0.6453 -2.5474
F -19.5274 2.4952 -0.3902
F -19.0675 3.4108 1.6194
B -18.6019 2.5567 0.6457
F -18.4563 1.2747 1.1879
F -17.3747 2.981 0.1608
H -20.3263 5.3434 -2.9381
H -19.762 4.5381 -1.7162
H -19.5602 4.5005 -5.1684
C -19.5287 5.0885 -2.4681
H -19.0736 5.8752 -2.16
C -18.82 4.1649 -4.6577
N -18.644 4.3337 -3.3605
H -18.5043 1.1997 -6.3055
H -18.3748 3.4256 -7.0588
N -17.8107 3.4515 -5.1423
C -17.7012 1.545 -6.7023
H -17.681 1.3162 -7.6347
C -17.661 3.0407 -6.5443
C -17.4728 3.7022 -2.9859
H -17.1005 3.6596 -2.1025
C -16.9535 3.1498 -4.1026
H -16.9373 1.163 -6.2626
H -16.8312 3.3768 -6.8916
H -16.1392 2.6448 -4.1656
F -23.0423 2.5933 -6.0364
F -22.5824 1.6778 -4.0269
B -22.1167 2.5319 -5.0006
F -21.9711 3.8139 -4.4584
F -20.8896 2.1075 -5.4855
H -22.7282 -2.0532 10.1047
H -22.0362 -1.3213 12.8308
H -21.93 -3.535 12.2018
C -21.9138 -1.5483 10.0417
H -21.7669 -1.0385 8.0416
C -21.3945 -0.9959 8.925
C -21.2063 -1.6574 12.4834
H -21.1863 -3.3818 13.5738
C -21.1662 -3.153 12.6414
N -21.0567 -1.2466 11.0814
H -20.4926 -1.2724 12.9979
H -20.363 -3.4984 12.2447
N -20.2233 -0.3644 9.2997
C -20.0474 -0.5331 10.5969
H -19.7938 1.1771 8.0992
C -19.3386 0.3905 8.4072
H -19.3072 -0.1975 11.1075
H -19.1054 -0.1599 7.6554
H -18.541 0.6453 8.8772
F -19.5274 2.4952 11.0345
F -19.0675 3.4108 13.044
B -18.6019 2.5567 12.0703
F -18.4563 1.2747 12.6125
F -17.3747 2.981 11.5854
H -20.3263 5.3434 8.4865
H -19.762 4.5381 9.7084
H -19.5602 4.5005 6.2562
C -19.5287 5.0885 8.9565
H -19.0736 5.8752 9.2646
C -18.82 4.1649 6.7669
N -18.644 4.3337 8.0641
H -18.5043 1.1997 5.1191
H -18.3748 3.4256 4.3659
N -17.8107 3.4515 6.2823
C -17.7012 1.545 4.7224
H -17.681 1.3162 3.7899
C -17.661 3.0407 4.8803
C -17.4728 3.7022 8.4388
H -17.1005 3.6596 9.3222
C -16.9535 3.1498 7.322
H -16.9373 1.163 5.162
H -16.8312 3.3768 4.533
H -16.1392 2.6448 7.259
F -23.0423 2.5933 5.3882
F -22.5824 1.6778 7.3977
B -22.1167 2.5319 6.4241
F -21.9711 3.8139 6.9662
F -20.8896 2.1075 5.9391
H -22.7282 7.3429 -1.3199
H -22.0362 8.0748 1.4062
H -21.93 5.8611 0.7772
C -21.9138 7.8478 -1.3829
H -21.7669 8.3576 -3.383
C -21.3945 8.4002 -2.4996
C -21.2063 7.7387 1.0588
H -21.1863 6.0143 2.1492
C -21.1662 6.2431 1.2168
N -21.0567 8.1495 -0.3432
H -20.4926 8.1237 1.5733
H -20.363 5.8977 0.8201
N -20.2233 9.0317 -2.1249
C -20.0474 8.863 -0.8277
H -19.7938 10.5732 -3.3254
C -19.3386 9.7866 -3.0174
H -19.3072 9.1986 -0.3171
H -19.1054 9.2362 -3.7692
H -18.541 10.0414 -2.5474
F -19.5274 11.8913 -0.3902
F -19.0675 12.8069 1.6194
B -18.6019 11.9528 0.6457
F -18.4563 10.6708 1.1879
F -17.3747 12.3771 0.1608
H -20.3263 14.7395 -2.9381
H -19.762 13.9342 -1.7162
H -19.5602 13.8966 -5.1684
C -19.5287 14.4847 -2.4681
H -19.0736 15.2713 -2.16
C -18.82 13.561 -4.6577
N -18.644 13.7298 -3.3605
H -18.5043 10.5958 -6.3055
H -18.3748 12.8217 -7.0588
N -17.8107 12.8476 -5.1423
C -17.7012 10.9411 -6.7023
H -17.681 10.7123 -7.6347
C -17.661 12.4368 -6.5443
C -17.4728 13.0983 -2.9859
H -17.1005 13.0557 -2.1025
C -16.9535 12.5459 -4.1026
H -16.9373 10.5592 -6.2626
H -16.8312 12.7729 -6.8916
H -16.1392 12.0409 -4.1656
F -23.0423 11.9894 -6.0364
F -22.5824 11.0739 -4.0269
B -22.1167 11.928 -5.0006
F -21.9711 13.21 -4.4584
F -20.8896 11.5036 -5.4855
H -11.5645 -13.4488 -2.9381
H -11.0002 -14.2541 -1.7162
H -10.7984 -14.2917 -5.1684
C -10.7669 -13.7036 -2.4681
H -10.3118 -12.917 -2.16
C -10.0582 -14.6273 -4.6577
N -9.8822 -14.4585 -3.3605
H -9.7425 -17.5925 -6.3055
H -9.613 -15.3666 -7.0588
N -9.0489 -15.3407 -5.1423
C -8.9394 -17.2472 -6.7023
H -8.9192 -17.476 -7.6347
C -8.8992 -15.7515 -6.5443
C -8.711 -15.09 -2.9859
H -8.3387 -15.1326 -2.1025
C -8.1917 -15.6424 -4.1026
H -8.1755 -17.6292 -6.2626
H -8.0694 -15.4154 -6.8916
H -7.3773 -16.1474 -4.1656
F -14.2805 -16.1989 -6.0364
F -13.8206 -17.1144 -4.0269
B -13.3549 -16.2603 -5.0006
F -13.2093 -14.9783 -4.4584
F -12.1278 -16.6847 -5.4855
H -11.5645 -13.4488 8.4865
H -11.0002 -14.2541 9.7084
H -10.7984 -14.2917 6.2562
C -10.7669 -13.7036 8.9565
H -10.3118 -12.917 9.2646
C -10.0582 -14.6273 6.7669
N -9.8822 -14.4585 8.0641
H -9.7425 -17.5925 5.1191
H -9.613 -15.3666 4.3659
N -9.0489 -15.3407 6.2823
C -8.9394 -17.2472 4.7224
H -8.9192 -17.476 3.7899
C -8.8992 -15.7515 4.8803
C -8.711 -15.09 8.4388
H -8.3387 -15.1326 9.3222
C -8.1917 -15.6424 7.322
H -8.1755 -17.6292 5.162
H -8.0694 -15.4154 4.533
H -7.3773 -16.1474 7.259
F -14.2805 -16.1989 5.3882
F -13.8206 -17.1144 7.3977
B -13.3549 -16.2603 6.4241
F -13.2093 -14.9783 6.9662
F -12.1278 -16.6847 5.9391
H -16.8114 -9.6509 -8.7164
H -16.2471 -8.8457 -7.4946
H -16.0453 -8.8081 -10.9467
C -16.0138 -9.3961 -8.2464
H -15.5587 -10.1827 -7.9384
C -15.3051 -8.4725 -10.4361
N -15.1291 -8.6412 -9.1389
H -14.9894 -5.5072 -12.0839
H -14.8599 -7.7332 -12.8371
N -14.2958 -7.759 -10.9206
C -14.1863 -5.8525 -12.4806
H -14.1661 -5.6238 -13.413
C -14.1461 -7.3482 -12.3226
C -13.9579 -8.0097 -8.7642
H -13.5856 -7.9671 -7.8808
C -13.4386 -7.4573 -9.8809
H -13.4224 -5.4706 -12.041
H -13.3163 -7.6843 -12.67
H -12.6243 -6.9524 -9.9439
F -17.9777 -11.9866 -11.4246
F -16.8962 -10.2803 -12.4517
B -16.7506 -11.5623 -11.9095
F -16.2849 -12.4164 -12.8832
F -15.825 -11.5008 -10.8737
H -19.2133 -11.6504 -7.0982
H -18.5213 -12.3824 -4.3722
H -18.4152 -10.1686 -5.0012
C -18.3989 -12.1554 -7.1612
H -18.252 -12.6652 -9.1614
C -17.8796 -12.7078 -8.278
C -17.6914 -12.0463 -4.7195
H -17.6715 -10.3218 -3.6291
C -17.6513 -10.5506 -4.5616
N -17.5418 -12.4571 -6.1215
H -16.9777 -12.4312 -4.2051
H -16.8481 -10.2053 -4.9583
N -16.7084 -13.3393 -7.9033
C -16.5325 -13.1705 -6.6061
H -16.2789 -14.8808 -9.1038
C -15.8237 -14.0942 -8.7957
H -15.7923 -13.5061 -6.0954
H -15.5905 -13.5437 -9.5476
H -15.0261 -14.349 -8.3257
F -14.4629 -11.1131 -5.7783
F -13.3813 -12.8195 -6.8054
B -13.2357 -11.5375 -6.2632
F -12.7701 -10.6834 -7.2369
F -12.3101 -11.5989 -5.2274
H -13.9664 -11.4493 -12.7445
H -13.2744 -10.7174 -10.0185
H -13.1682 -12.9311 -10.6475
C -13.152 -10.9444 -12.8075
H -13.0051 -10.4346 -14.8076
C -12.6327 -10.392 -13.9242
C -12.4445 -11.0535 -10.3658
H -12.4245 -12.7779 -9.2754
C -12.4044 -12.5492 -10.2078
N -12.2949 -10.6427 -11.7678
H -11.7308 -10.6685 -9.8513
H -11.6012 -12.8945 -10.6046
N -11.4615 -9.7605 -13.5495
C -11.2856 -9.9292 -12.2524
H -11.032 -8.219 -14.7501
C -10.5768 -9.0056 -14.442
H -10.5454 -9.5936 -11.7417
H -10.3436 -9.556 -15.1939
H -9.7792 -8.7508 -13.972
F -10.7656 -6.9009 -11.8148
F -10.3057 -5.9853 -9.8053
B -9.8401 -6.8394 -10.7789
F -9.6944 -8.1214 -10.2368
F -8.6129 -6.4151 -11.2638
H -11.5645 -4.0527 -14.3627
H -11.0002 -4.858 -13.1409
H -10.7984 -4.8956 -16.593
C -10.7669 -4.3075 -13.8927
H -10.3118 -3.5209 -13.5847
C -10.0582 -5.2312 -16.0824
N -9.8822 -5.0624 -14.7852
H -9.7425 -8.1964 -17.7302
H -9.613 -5.9705 -18.4834
N -9.0489 -5.9446 -16.5669
C -8.9394 -7.8511 -18.1269
H -8.9192 -8.0799 -19.0593
C -8.8992 -6.3554 -17.9689
C -8.711 -5.6939 -14.4105
H -8.3387 -5.7365 -13.5271
C -8.1917 -6.2463 -15.5272
H -8.1755 -8.2331 -17.6872
H -8.0694 -6.0193 -18.3162
H -7.3773 -6.7513 -15.5902
F -14.2805 -6.8028 -17.4611
F -13.8206 -7.7183 -15.4515
B -13.3549 -6.8642 -16.4252
F -13.2093 -5.5822 -15.883
F -12.1278 -7.2886 -16.9101
H -16.8114 -9.6509 2.7082
H -16.2471 -8.8457 3.93
H -16.0453 -8.8081 0.4779
C -16.0138 -9.3961 3.1782
H -15.5587 -10.1827 3.4862
C -15.3051 -8.4725 0.9886
N -15.1291 -8.6412 2.2857
H -14.9894 -5.5072 -0.6593
H -14.8599 -7.7332 -1.4125
N -14.2958 -7.759 0.504
C -14.1863 -5.8525 -1.056
H -14.1661 -5.6238 -1.9884
C -14.1461 -7.3482 -0.898
C -13.9579 -8.0097 2.6604
H -13.5856 -7.9671 3.5438
C -13.4386 -7.4573 1.5437
H -13.4224 -5.4706 -0.6163
H -13.3163 -7.6843 -1.2453
H -12.6243 -6.9524 1.4807
F -17.9777 -11.9866 0
F -16.8962 -10.2803 -1.0271
B -16.7506 -11.5623 -0.4849
F -16.2849 -12.4164 -1.4586
F -15.825 -11.5008 0.551
H -19.2133 -11.6504 4.3264
H -18.5213 -12.3824 7.0524
H -18.4152 -10.1686 6.4234
C -18.3989 -12.1554 4.2634
H -18.252 -12.6652 2.2633
C -17.8796 -12.7078 3.1467
C -17.6914 -12.0463 6.7051
H -17.6715 -10.3218 7.7955
C -17.6513 -10.5506 6.8631
N -17.5418 -12.4571 5.3031
H -16.9777 -12.4312 7.2196
H -16.8481 -10.2053 6.4664
N -16.7084 -13.3393 3.5214
C -16.5325 -13.1705 4.8185
H -16.2789 -14.8808 2.3209
C -15.8237 -14.0942 2.6289
H -15.7923 -13.5061 5.3292
H -15.5905 -13.5437 1.8771
H -15.0261 -14.349 3.0989
F -14.4629 -11.1131 5.6463
F -13.3813 -12.8195 4.6192
B -13.2357 -11.5375 5.1614
F -12.7701 -10.6834 4.1877
F -12.3101 -11.5989 6.1973
H -13.9664 -11.4493 -1.3199
H -13.2744 -10.7174 1.4062
H -13.1682 -12.9311 0.7772
C -13.152 -10.9444 -1.3829
H -13.0051 -10.4346 -3.383
C -12.6327 -10.392 -2.4996
C -12.4445 -11.0535 1.0588
H -12.4245 -12.7779 2.1492
C -12.4044 -12.5492 1.2168
N -12.2949 -10.6427 -0.3432
H -11.7308 -10.6685 1.5733
H -11.6012 -12.8945 0.8201
N -11.4615 -9.7605 -2.1249
C -11.2856 -9.9292 -0.8277
H -11.032 -8.219 -3.3254
C -10.5768 -9.0056 -3.0174
H -10.5454 -9.5936 -0.3171
H -10.3436 -9.556 -3.7692
H -9.7792 -8.7508 -2.5474
F -10.7656 -6.9009 -0.3902
F -10.3057 -5.9853 1.6194
B -9.8401 -6.8394 0.6457
F -9.6944 -8.1214 1.1879
F -8.6129 -6.4151 0.1608
H -11.5645 -4.0527 -2.9381
H -11.0002 -4.858 -1.7162
H -10.7984 -4.8956 -5.1684
C -10.7669 -4.3075 -2.4681
H -10.3118 -3.5209 -2.16
C -10.0582 -5.2312 -4.6577
N -9.8822 -5.0624 -3.3605
H -9.7425 -8.1964 -6.3055
H -9.613 -5.9705 -7.0588
N -9.0489 -5.9446 -5.1423
C -8.9394 -7.8511 -6.7023
H -8.9192 -8.0799 -7.6347
C -8.8992 -6.3554 -6.5443
C -8.711 -5.6939 -2.9859
H -8.3387 -5.7365 -2.1025
C -8.1917 -6.2463 -4.1026
H -8.1755 -8.2331 -6.2626
H -8.0694 -6.0193 -6.8916
H -7.3773 -6.7513 -4.1656
F -14.2805 -6.8028 -6.0364
F -13.8206 -7.7183 -4.0269
B -13.3549 -6.8642 -5.0006
F -13.2093 -5.5822 -4.4584
F -12.1278 -7.2886 -5.4855
H -16.8114 -9.6509 14.1328
H -16.2471 -8.8457 15.3547
H -16.0453 -8.8081 11.9025
C -16.0138 -9.3961 14.6028
H -15.5587 -10.1827 14.9109
C -15.3051 -8.4725 12.4132
N -15.1291 -8.6412 13.7103
H -14.9894 -5.5072 10.7654
H -14.8599 -7.7332 10.0121
N -14.2958 -7.759 11.9286
C -14.1863 -5.8525 10.3687
H -14.1661 -5.6238 9.4362
C -14.1461 -7.3482 10.5266
C -13.9579 -8.0097 14.085
H -13.5856 -7.9671 14.9685
C -13.4386 -7.4573 12.9683
H -13.4224 -5.4706 10.8083
H -13.3163 -7.6843 10.1793
H -12.6243 -6.9524 12.9053
F -17.9777 -11.9866 11.4246
F -16.8962 -10.2803 10.3976
B -16.7506 -11.5623 10.9397
F -16.2849 -12.4164 9.9661
F -15.825 -11.5008 11.9756
H -13.9664 -11.4493 10.1047
H -13.2744 -10.7174 12.8308
H -13.1682 -12.9311 12.2018
C -13.152 -10.9444 10.0417
H -13.0051 -10.4346 8.0416
C -12.6327 -10.392 8.925
C -12.4445 -11.0535 12.4834
H -12.4245 -12.7779 13.5738
C -12.4044 -12.5492 12.6414
N -12.2949 -10.6427 11.0814
H -11.7308 -10.6685 12.9979
H -11.6012 -12.8945 12.2447
N -11.4615 -9.7605 9.2997
C -11.2856 -9.9292 10.5969
H -11.032 -8.219 8.0992
C -10.5768 -9.0056 8.4072
H -10.5454 -9.5936 11.1075
H -10.3436 -9.556 7.6554
H -9.7792 -8.7508 8.8772
F -10.7656 -6.9009 11.0345
F -10.3057 -5.9853 13.044
B -9.8401 -6.8394 12.0703
F -9.6944 -8.1214 12.6125
F -8.6129 -6.4151 11.5854
H -11.5645 -4.0527 8.4865
H -11.0002 -4.858 9.7084
H -10.7984 -4.8956 6.2562
C -10.7669 -4.3075 8.9565
H -10.3118 -3.5209 9.2646
C -10.0582 -5.2312 6.7669
N -9.8822 -5.0624 8.0641
H -9.7425 -8.1964 5.1191
H -9.613 -5.9705 4.3659
N -9.0489 -5.9446 6.2823
C -8.9394 -7.8511 4.7224
H -8.9192 -8.0799 3.7899
C -8.8992 -6.3554 4.8803
C -8.711 -5.6939 8.4388
H -8.3387 -5.7365 9.3222
C -8.1917 -6.2463 7.322
H -8.1755 -8.2331 5.162
H -8.0694 -6.0193 4.533
H -7.3773 -6.7513 7.259
F -14.2805 -6.8028 5.3882
F -13.8206 -7.7183 7.3977
B -13.3549 -6.8642 6.4241
F -13.2093 -5.5822 6.9662
F -12.1278 -7.2886 5.9391
H -11.5645 -4.0527 19.9111
H -11.0002 -4.858 21.133
H -10.7984 -4.8956 17.6809
C -10.7669 -4.3075 20.3811
H -10.3118 -3.5209 20.6892
C -10.0582 -5.2312 18.1915
N -9.8822 -5.0624 19.4887
H -9.7425 -8.1964 16.5437
H -9.613 -5.9705 15.7905
N -9.0489 -5.9446 17.7069
C -8.9394 -7.8511 16.147
H -8.9192 -8.0799 15.2146
C -8.8992 -6.3554 16.305
C -8.711 -5.6939 19.8634
H -8.3387 -5.7365 20.7468
C -8.1917 -6.2463 18.7467
H -8.1755 -8.2331 16.5866
H -8.0694 -6.0193 15.9576
H -7.3773 -6.7513 18.6836
F -14.2805 -6.8028 16.8128
F -13.8206 -7.7183 18.8223
B -13.3549 -6.8642 17.8487
F -13.2093 -5.5822 18.3908
F -12.1278 -7.2886 17.3638
H -16.8114 -0.2548 -8.7164
H -16.2471 0.5504 -7.4946
H -16.0453 0.588 -10.9467
C -16.0138 0 -8.2464
H -15.5587 -0.7866 -7.9384
C -15.3051 0.9236 -10.4361
N -15.1291 0.7549 -9.1389
H -14.9894 3.8889 -12.0839
H -14.8599 1.6629 -12.8371
N -14.2958 1.6371 -10.9206
C -14.1863 3.5436 -12.4806
H -14.1661 3.7723 -13.413
C -14.1461 2.0479 -12.3226
C -13.9579 1.3864 -8.7642
H -13.5856 1.429 -7.8808
C -13.4386 1.9388 -9.8809
H -13.4224 3.9255 -12.041
H -13.3163 1.7118 -12.67
H -12.6243 2.4437 -9.9439
F -17.9777 -2.5905 -11.4246
F -16.8962 -0.8842 -12.4517
B -16.7506 -2.1662 -11.9095
F -16.2849 -3.0203 -12.8832
F -15.825 -2.1047 -10.8737
H -19.2133 -2.2543 -7.0982
H -18.5213 -2.9863 -4.3722
H -18.4152 -0.7725 -5.0012
C -18.3989 -2.7593 -7.1612
H -18.252 -3.2691 -9.1614
C -17.8796 -3.3117 -8.278
C -17.6914 -2.6502 -4.7195
H -17.6715 -0.9257 -3.6291
C -17.6513 -1.1545 -4.5616
N -17.5418 -3.061 -6.1215
H -16.9777 -3.0351 -4.2051
H -16.8481 -0.8092 -4.9583
N -16.7084 -3.9432 -7.9033
C -16.5325 -3.7744 -6.6061
H -16.2789 -5.4847 -9.1038
C -15.8237 -4.6981 -8.7957
H -15.7923 -4.11 -6.0954
H -15.5905 -4.1476 -9.5476
H -15.0261 -4.9529 -8.3257
F -14.4629 -1.717 -5.7783
F -13.3813 -3.4234 -6.8054
B -13.2357 -2.1414 -6.2632
F -12.7701 -1.2873 -7.2369
F -12.3101 -2.2028 -5.2274
H -13.9664 -2.0532 -12.7445
H -13.2744 -1.3213 -10.0185
H -13.1682 -3.535 -10.6475
C -13.152 -1.5483 -12.8075
H -13.0051 -1.0385 -14.8076
C -12.6327 -0.9959 -13.9242
C -12.4445 -1.6574 -10.3658
H -12.4245 -3.3818 -9.2754
C -12.4044 -3.153 -10.2078
N -12.2949 -1.2466 -11.7678
H -11.7308 -1.2724 -9.8513
H -11.6012 -3.4984 -10.6046
N -11.4615 -0.3644 -13.5495
C -11.2856 -0.5331 -12.2524
H -11.032 1.1771 -14.7501
C -10.5768 0.3905 -14.442
H -10.5454 -0.1975 -11.7417
H -10.3436 -0.1599 -15.1939
H -9.7792 0.6453 -13.972
F -10.7656 2.4952 -11.8148
F -10.3057 3.4108 -9.8053
B -9.8401 2.5567 -10.7789
F -9.6944 1.2747 -10.2368
F -8.6129 2.981 -11.2638
H -11.5645 5.3434 -14.3627
H -11.0002 4.5381 -13.1409
H -10.7984 4.5005 -16.593
C -10.7669 5.0885 -13.8927
H -10.3118 5.8752 -13.5847
C -10.0582 4.1649 -16.0824
N -9.8822 4.3337 -14.7852
H -9.7425 1.1997 -17.7302
H -9.613 3.4256 -18.4834
N -9.0489 3.4515 -16.5669
C -8.9394 1.545 -18.1269
H -8.9192 1.3162 -19.0593
C -8.8992 3.0407 -17.9689
C -8.711 3.7022 -14.4105
H -8.3387 3.6596 -13.5271
C -8.1917 3.1498 -15.5272
H -8.1755 1.163 -17.6872
H -8.0694 3.3768 -18.3162
H -7.3773 2.6448 -15.5902
F -14.2805 2.5933 -17.4611
F -13.8206 1.6778 -15.4515
B -13.3549 2.5319 -16.4252
F -13.2093 3.8139 -15.883
F -12.1278 2.1075 -16.9101
H -16.8114 -0.2548 2.7082
H -16.2471 0.5504 3.93
H -16.0453 0.588 0.4779
C -16.0138 0 3.1782
H -15.5587 -0.7866 3.4862
C -15.3051 0.9236 0.9886
N -15.1291 0.7549 2.2857
H -14.9894 3.8889 -0.6593
H -14.8599 1.6629 -1.4125
N -14.2958 1.6371 0.504
C -14.1863 3.5436 -1.056
H -14.1661 3.7723 -1.9884
C -14.1461 2.0479 -0.898
C -13.9579 1.3864 2.6604
H -13.5856 1.429 3.5438
C -13.4386 1.9388 1.5437
H -13.4224 3.9255 -0.6163
H -13.3163 1.7118 -1.2453
H -12.6243 2.4437 1.4807
F -17.9777 -2.5905 0
F -16.8962 -0.8842 -1.0271
B -16.7506 -2.1662 -0.4849
F -16.2849 -3.0203 -1.4586
F -15.825 -2.1047 0.551
H -19.2133 -2.2543 4.3264
H -18.5213 -2.9863 7.0524
H -18.4152 -0.7725 6.4234
C -18.3989 -2.7593 4.2634
H -18.252 -3.2691 2.2633
C -17.8796 -3.3117 3.1467
C -17.6914 -2.6502 6.7051
H -17.6715 -0.9257 7.7955
C -17.6513 -1.1545 6.8631
N -17.5418 -3.061 5.3031
H -16.9777 -3.0351 7.2196
H -16.8481 -0.8092 6.4664
N -16.7084 -3.9432 3.5214
C -16.5325 -3.7744 4.8185
H -16.2789 -5.4847 2.3209
C -15.8237 -4.6981 2.6289
H -15.7923 -4.11 5.3292
H -15.5905 -4.1476 1.8771
H -15.0261 -4.9529 3.0989
F -14.4629 -1.717 5.6463
F -13.3813 -3.4234 4.6192
B -13.2357 -2.1414 5.1614
F -12.7701 -1.2873 4.1877
F -12.3101 -2.2028 6.1973
H -13.9664 -2.0532 -1.3199
H -13.2744 -1.3213 1.4062
H -13.1682 -3.535 0.7772
C -13.152 -1.5483 -1.3829
H -13.0051 -1.0385 -3.383
C -12.6327 -0.9959 -2.4996
C -12.4445 -1.6574 1.0588
H -12.4245 -3.3818 2.1492
C -12.4044 -3.153 1.2168
N -12.2949 -1.2466 -0.3432
H -11.7308 -1.2724 1.5733
H -11.6012 -3.4984 0.8201
N -11.4615 -0.3644 -2.1249
C -11.2856 -0.5331 -0.8277
H -11.032 1.1771 -3.3254
C -10.5768 0.3905 -3.0174
H -10.5454 -0.1975 -0.3171
H -10.3436 -0.1599 -3.7692
H -9.7792 0.6453 -2.5474
F -10.7656 2.4952 -0.3902
F -10.3057 3.4108 1.6194
B -9.8401 2.5567 0.6457
F -9.6944 1.2747 1.1879
F -8.6129 2.981 0.1608
H -11.5645 5.3434 -2.9381
H -11.0002 4.5381 -1.7162
H -10.7984 4.5005 -5.1684
C -10.7669 5.0885 -2.4681
H -10.3118 5.8752 -2.16
C -10.0582 4.1649 -4.6577
N -9.8822 4.3337 -3.3605
H -9.7425 1.1997 -6.3055
H -9.613 3.4256 -7.0588
N -9.0489 3.4515 -5.1423
C -8.9394 1.545 -6.7023
H -8.9192 1.3162 -7.6347
C -8.8992 3.0407 -6.5443
C -8.711 3.7022 -2.9859
H -8.3387 3.6596 -2.1025
C -8.1917 3.1498 -4.1026
H -8.1755 1.163 -6.2626
H -8.0694 3.3768 -6.8916
H -7.3773 2.6448 -4.1656
F -14.2805 2.5933 -6.0364
F -13.8206 1.6778 -4.0269
B -13.3549 2.5319 -5.0006
F -13.2093 3.8139 -4.4584
F -12.1278 2.1075 -5.4855
H -16.8114 -0.2548 14.1328
H -16.2471 0.5504 15.3547
H -16.0453 0.588 11.9025
C -16.0138 0 14.6028
H -15.5587 -0.7866 14.9109
C -15.3051 0.9236 12.4132
N -15.1291 0.7549 13.7103
H -14.9894 3.8889 10.7654
H -14.8599 1.6629 10.0121
N -14.2958 1.6371 11.9286
C -14.1863 3.5436 10.3687
H -14.1661 3.7723 9.4362
C -14.1461 2.0479 10.5266
C -13.9579 1.3864 14.085
H -13.5856 1.429 14.9685
C -13.4386 1.9388 12.9683
H -13.4224 3.9255 10.8083
H -13.3163 1.7118 10.1793
H -12.6243 2.4437 12.9053
F -17.9777 -2.5905 11.4246
F -16.8962 -0.8842 10.3976
B -16.7506 -2.1662 10.9397
F -16.2849 -3.0203 9.9661
F -15.825 -2.1047 11.9756
H -13.9664 -2.0532 10.1047
H -13.2744 -1.3213 12.8308
H -13.1682 -3.535 12.2018
C -13.152 -1.5483 10.0417
H -13.0051 -1.0385 8.0416
C -12.6327 -0.9959 8.925
C -12.4445 -1.6574 12.4834
H -12.4245 -3.3818 13.5738
C -12.4044 -3.153 12.6414
N -12.2949 -1.2466 11.0814
H -11.7308 -1.2724 12.9979
H -11.6012 -3.4984 12.2447
N -11.4615 -0.3644 9.2997
C -11.2856 -0.5331 10.5969
H -11.032 1.1771 8.0992
C -10.5768 0.3905 8.4072
H -10.5454 -0.1975 11.1075
H -10.3436 -0.1599 7.6554
H -9.7792 0.6453 8.8772
F -10.7656 2.4952 11.0345
F -10.3057 3.4108 13.044
B -9.8401 2.5567 12.0703
F -9.6944 1.2747 12.6125
F -8.6129 2.981 11.5854
H -11.5645 5.3434 8.4865
H -11.0002 4.5381 9.7084
H -10.7984 4.5005 6.2562
C -10.7669 5.0885 8.9565
H -10.3118 5.8752 9.2646
C -10.0582 4.1649 6.7669
N -9.8822 4.3337 8.0641
H -9.7425 1.1997 5.1191
H -9.613 3.4256 4.3659
N -9.0489 3.4515 6.2823
C -8.9394 1.545 4.7224
H -8.9192 1.3162 3.7899
C -8.8992 3.0407 4.8803
C -8.711 3.7022 8.4388
H -8.3387 3.6596 9.3222
C -8.1917 3.1498 7.322
H -8.1755 1.163 5.162
H -8.0694 3.3768 4.533
H -7.3773 2.6448 7.259
F -14.2805 2.5933 5.3882
F -13.8206 1.6778 7.3977
B -13.3549 2.5319 6.4241
F -13.2093 3.8139 6.9662
F -12.1278 2.1075 5.9391

