16

H       -3.8217923900   -1.0272673900   -0.8525647840
N       -3.2042023650   -0.4096773650   -1.3506766980
H       -3.1935831700   -0.3990581700   -2.3473700000
C       -2.3954668300    0.3990581700   -0.6469351720
O       -2.3954668300    0.3990581700    0.6112551480
H       -1.5973504900    1.1971745100   -2.3473700000
N       -1.5867312950    1.2077937050   -1.3506766980
H       -0.9691412700    1.8253837300   -0.8525647840
H       -1.0272673900   -0.9691412700    1.1708681560
N       -0.4096773650   -1.5867312950    1.6689800700
H       -0.3990581700   -1.5973504900    2.6656733720
O        0.3990581700   -2.3954668300   -0.2929517760
C        0.3990581700   -2.3954668300    0.9652385440
H        1.1971745100   -3.1935831700    2.6656733720
N        1.2077937050   -3.2042023650    1.6689800700
H        1.8253837300   -3.8217923900    1.1708681560
