240

H -6.2542556933 -2.530575 -1.3734998314
H -5.2272221243 -1.965465 0.7994594879
C -5.1949968022 -2.569077 -1.2577440546
H -5.0624544394 -0.661365 -0.344559593
H -4.9890795322 -3.617325 -0.9605698673
O -4.8568350693 -2.754135 -3.6148295218
C -4.7436229764 -1.653102 -0.1157557768
C -4.4829015604 -2.274102 -2.5709967273
H -3.6152767335 -0.350865 -2.4430561319
C -3.2823584984 -1.371789 -2.4877338001
C -3.2459994906 -1.67049 0.0453546026
O -2.6941881741 -1.686015 1.1257418529
H -2.6931384146 -1.481085 -3.3907642462
C -2.4279667175 -1.673595 -1.2421745641
H -1.9450556933 -2.670921 -1.3734998314
H -1.6156284639 -0.967518 -1.1636501775
H -4.0345983206 2.137482 1.9773252871
H -3.7051710911 0.434079 2.187174941
C -3.222260067 1.431405 2.0558496737
O -2.9560386104 1.418985 -0.3120667434
H -2.9570883698 1.623915 4.2044393558
C -2.4042272938 1.43451 0.768320507
C -2.367868286 1.733211 3.3014089097
H -2.034950051 2.754135 3.2567312414
C -1.167325224 0.830898 3.3846718369
C -0.906603808 1.451898 0.9294308864
O -0.7933917152 0.350865 4.4285046314
H -0.6611472522 -0.512325 1.7742449769
H -0.587772345 2.443635 1.1582347026
C -0.4552299822 0.535923 2.0714191642
H -0.4230046601 1.139535 0.0142156217
H 0.6040289089 0.574425 2.187174941
H -10.6845983206 -4.0725180000000005 1.9773252871
H -10.3551710911 -5.775921 2.187174941
C -9.872260067000001 -4.778595 2.0558496737
O -9.6060386104 -4.791015 -0.3120667434
H -9.6070883698 -4.586085 4.2044393558
C -9.0542272938 -4.77549 0.768320507
C -9.017868286 -4.476789 3.3014089097
H -8.684950051000001 -3.4558649999999997 3.2567312414
C -7.817325224 -5.379102 3.3846718369
C -7.556603808 -4.758102 0.9294308864
O -7.443391715200001 -5.859135 4.4285046314
H -7.3111472522000005 -6.722325 1.7742449769
H -7.237772345000001 -3.766365 1.1582347026
C -7.1052299822 -5.674077 2.0714191642
H -7.0730046601000005 -5.070465 0.0142156217
H -6.0459710911 -5.635575 2.187174941
H -9.51289604328704 2.1374819999999994 -4.792018386650034
H -9.183468813787039 0.4340789999999995 -4.582168732750034
C -8.70055778968704 1.4314049999999996 -4.7134940000500345
O -8.434336333087039 1.4189849999999995 -7.0814104171500345
H -8.43538609248704 1.6239149999999996 -2.5649043179500346
C -7.8825250164870395 1.4345099999999995 -6.001023166750034
C -7.84616600868704 1.7332109999999996 -3.4679347640500344
H -7.5132477736870396 2.7541349999999998 -3.5126124323500347
C -6.645622946687039 0.8308979999999996 -3.3846718368500346
C -6.384901530687039 1.4518979999999995 -5.839912787350034
O -6.27168943788704 0.3508649999999995 -2.3408390423500345
H -6.13944497488704 -0.5123250000000005 -4.995098696850034
H -6.06607006768704 2.4436349999999996 -5.611108971150035
C -5.933527704887039 0.5359229999999996 -4.697924509550035
H -5.90130238278704 1.1395349999999995 -6.7551280520500345
H -4.874268813787039 0.5744249999999995 -4.582168732750034
H -10.6845983206 2.137482 1.9773252871
H -10.3551710911 0.434079 2.187174941
C -9.872260067000001 1.431405 2.0558496737
O -9.6060386104 1.418985 -0.3120667434
H -9.6070883698 1.623915 4.2044393558
C -9.0542272938 1.43451 0.768320507
C -9.017868286 1.733211 3.3014089097
H -8.684950051000001 2.754135 3.2567312414
C -7.817325224 0.830898 3.3846718369
C -7.556603808 1.451898 0.9294308864
O -7.443391715200001 0.350865 4.4285046314
H -7.3111472522000005 -0.512325 1.7742449769
H -7.237772345000001 2.443635 1.1582347026
C -7.1052299822 0.535923 2.0714191642
H -7.0730046601000005 1.139535 0.0142156217
H -6.0459710911 0.574425 2.187174941
H -2.8628960432870394 -4.0725180000000005 -4.792018386650034
H -2.5334688137870396 -5.775921000000001 -4.582168732750034
C -2.0505577896870397 -4.778595000000001 -4.7134940000500345
O -1.7843363330870394 -4.791015000000001 -7.0814104171500345
H -1.7853860924870397 -4.586085000000001 -2.5649043179500346
C -1.2325250164870396 -4.775490000000001 -6.001023166750034
C -1.1961660086870398 -4.476789000000001 -3.4679347640500344
H -0.8632477736870396 -3.4558650000000006 -3.5126124323500347
C 0.004377053312960344 -5.3791020000000005 -3.3846718368500346
C 0.26509846931296044 -4.758102000000001 -5.839912787350034
O 0.37831056211296044 -5.859135000000001 -2.3408390423500345
H 0.5105550251129604 -6.7223250000000005 -4.995098696850034
H 0.5839299323129604 -3.766365000000001 -5.611108971150035
C 0.7164722951129604 -5.6740770000000005 -4.697924509550035
H 0.7486976172129605 -5.070465 -6.7551280520500345
H 1.7757311862129606 -5.635575000000001 -4.582168732750034
H -6.2542556933 -8.740575 -1.3734998314
H -5.2272221243 -8.175464999999999 0.7994594879
C -5.1949968022 -8.779077000000001 -1.2577440546
H -5.0624544394 -6.871365 -0.344559593
H -4.9890795322 -9.827325 -0.9605698673
O -4.8568350693 -8.964135 -3.6148295218
C -4.7436229764 -7.863102 -0.1157557768
C -4.4829015604 -8.484102 -2.5709967273
H -3.6152767335000005 -6.560865 -2.4430561319
C -3.2823584984000003 -7.581789 -2.4877338001
C -3.2459994906000005 -7.88049 0.0453546026
O -2.6941881741000007 -7.896015 1.1257418529
H -2.6931384146000004 -7.691085 -3.3907642462
C -2.4279667175000004 -7.883595 -1.2421745641
H -1.9450556933000005 -8.880921 -1.3734998314
H -1.6156284639000005 -7.177518 -1.1636501775
H -4.0345983206 -4.0725180000000005 1.9773252871
H -3.7051710911000004 -5.775921 2.187174941
C -3.2222600670000006 -4.778595 2.0558496737
O -2.9560386104000003 -4.791015 -0.3120667434
H -2.9570883698000006 -4.586085 4.2044393558
C -2.4042272938000004 -4.77549 0.768320507
C -2.3678682860000007 -4.476789 3.3014089097
H -2.0349500510000005 -3.4558649999999997 3.2567312414
C -1.1673252240000005 -5.379102 3.3846718369
C -0.9066038080000003 -4.758102 0.9294308864
O -0.7933917152000003 -5.859135 4.4285046314
H -0.6611472522000004 -6.722325 1.7742449769
H -0.5877723450000003 -3.766365 1.1582347026
C -0.4552299822000004 -5.674077 2.0714191642
H -0.4230046601000004 -5.070465 0.0142156217
H 0.6040289088999997 -5.635575 2.187174941
H -2.862896043287039 2.1374819999999994 -4.792018386650034
H -2.533468813787039 0.4340789999999995 -4.582168732750034
C -2.0505577896870393 1.4314049999999996 -4.7134940000500345
O -1.784336333087039 1.4189849999999995 -7.0814104171500345
H -1.7853860924870393 1.6239149999999996 -2.5649043179500346
C -1.2325250164870392 1.4345099999999995 -6.001023166750034
C -1.1961660086870394 1.7332109999999996 -3.4679347640500344
H -0.8632477736870392 2.7541349999999998 -3.5126124323500347
C 0.004377053312960788 0.8308979999999996 -3.3846718368500346
C 0.2650984693129609 1.4518979999999995 -5.839912787350034
O 0.3783105621129609 0.3508649999999995 -2.3408390423500345
H 0.5105550251129608 -0.5123250000000005 -4.995098696850034
H 0.5839299323129609 2.4436349999999996 -5.611108971150035
C 0.7164722951129608 0.5359229999999996 -4.697924509550035
H 0.7486976172129609 1.1395349999999995 -6.7551280520500345
H 1.775731186212961 0.5744249999999995 -4.582168732750034
H -7.425957970612961 -2.5305749999999994 5.395843842350034
H -6.398924401612961 -1.9654649999999996 7.568803161650035
C -6.366699079512961 -2.5690769999999996 5.511599619150035
H -6.234156716712961 -0.6613649999999995 6.424784080750035
H -6.160781809512961 -3.6173249999999997 5.808773806450034
O -6.028537346612961 -2.7541349999999998 3.1545141519500346
C -5.915325253712961 -1.6531019999999996 6.653587896950034
C -5.654603837712961 -2.2741019999999996 4.198346946450035
H -4.786979010812961 -0.3508649999999995 4.326287541850034
C -4.454060775712961 -1.3717889999999995 4.2816098736500345
C -4.417701767912961 -1.6704899999999996 6.814698276350034
O -3.865890451412961 -1.6860149999999996 7.895085526650035
H -3.8648406919129608 -1.4810849999999995 3.3785794275500347
C -3.5996689948129608 -1.6735949999999995 5.527169109650035
H -3.116757970612961 -2.6709209999999994 5.395843842350034
H -2.787330741212961 -0.9675179999999995 5.605693496250034
H -6.2542556933 3.679425 -1.3734998314
H -5.2272221243 4.244535 0.7994594879
C -5.1949968022 3.640923 -1.2577440546
H -5.0624544394 5.548635 -0.344559593
H -4.9890795322 2.592675 -0.9605698673
O -4.8568350693 3.4558649999999997 -3.6148295218
C -4.7436229764 4.556898 -0.1157557768
C -4.4829015604 3.935898 -2.5709967273
H -3.6152767334999996 5.859135 -2.4430561319
C -3.2823584983999994 4.838211 -2.4877338001
C -3.2459994905999996 4.53951 0.0453546026
O -2.6941881740999998 4.523985 1.1257418529
H -2.6931384145999995 4.728915 -3.3907642462
C -2.4279667174999995 4.536405 -1.2421745641
H -1.9450556932999996 3.539079 -1.3734998314
H -1.6156284638999996 5.242482 -1.1636501775
H -7.425957970612961 3.679425000000001 5.395843842350034
H -6.398924401612961 4.244535000000001 7.568803161650035
C -6.36669907951296 3.640923000000001 5.511599619150035
H -6.23415671671296 5.548635000000001 6.424784080750035
H -6.16078180951296 2.5926750000000007 5.808773806450034
O -6.028537346612961 3.4558650000000006 3.1545141519500346
C -5.915325253712961 4.556898 6.653587896950034
C -5.65460383771296 3.935898000000001 4.198346946450035
H -4.78697901081296 5.859135000000001 4.326287541850034
C -4.454060775712961 4.838211000000001 4.2816098736500345
C -4.417701767912961 4.539510000000001 6.814698276350034
O -3.8658904514129606 4.523985000000001 7.895085526650035
H -3.8648406919129603 4.728915000000001 3.3785794275500347
C -3.5996689948129603 4.536405000000001 5.527169109650035
H -3.1167579706129604 3.539079000000001 5.395843842350034
H -2.78733074121296 5.242482000000001 5.605693496250034
H 0.39574430670000016 -2.530575 -1.3734998314
H 1.4227778757000005 -1.965465 0.7994594879
C 1.4550031978 -2.569077 -1.2577440546
H 1.5875455606000006 -0.661365 -0.344559593
H 1.6609204678000005 -3.617325 -0.9605698673
O 1.7931649307000006 -2.754135 -3.6148295218
C 1.9063770236000002 -1.653102 -0.1157557768
C 2.1670984396 -2.274102 -2.5709967273
H 3.0347232665000003 -0.350865 -2.4430561319
C 3.3676415016000005 -1.371789 -2.4877338001
C 3.4040005094000003 -1.67049 0.0453546026
O 3.9558118259 -1.686015 1.1257418529
H 3.9568615854000004 -1.481085 -3.3907642462
C 4.2220332825 -1.673595 -1.2421745641
H 4.7049443067 -2.670921 -1.3734998314
H 5.0343715361 -0.967518 -1.1636501775
H -0.7759579706129607 -2.5305749999999994 5.395843842350034
H 0.25107559838703963 -1.9654649999999996 7.568803161650035
C 0.28330092048703914 -2.5690769999999996 5.511599619150035
H 0.4158432832870398 -0.6613649999999995 6.424784080750035
H 0.48921819048703963 -3.6173249999999997 5.808773806450034
O 0.6214626533870398 -2.7541349999999998 3.1545141519500346
C 0.7346747462870393 -1.6531019999999996 6.653587896950034
C 0.9953961622870393 -2.2741019999999996 4.198346946450035
H 1.8630209891870395 -0.3508649999999995 4.326287541850034
C 2.1959392242870397 -1.3717889999999995 4.2816098736500345
C 2.2322982320870395 -1.6704899999999996 6.814698276350034
O 2.7841095485870393 -1.6860149999999996 7.895085526650035
H 2.7851593080870396 -1.4810849999999995 3.3785794275500347
C 3.0503310051870396 -1.6735949999999995 5.527169109650035
H 3.5332420293870395 -2.6709209999999994 5.395843842350034
H 3.8626692587870393 -0.9675179999999995 5.605693496250034
H 0.39574430670000016 3.679425 -1.3734998314
H 1.4227778757000005 4.244535 0.7994594879
C 1.4550031978 3.640923 -1.2577440546
H 1.5875455606000006 5.548635 -0.344559593
H 1.6609204678000005 2.592675 -0.9605698673
O 1.7931649307000006 3.4558649999999997 -3.6148295218
C 1.9063770236000002 4.556898 -0.1157557768
C 2.1670984396 3.935898 -2.5709967273
H 3.0347232665000003 5.859135 -2.4430561319
C 3.3676415016000005 4.838211 -2.4877338001
C 3.4040005094000003 4.53951 0.0453546026
O 3.9558118259 4.523985 1.1257418529
H 3.9568615854000004 4.728915 -3.3907642462
C 4.2220332825 4.536405 -1.2421745641
H 4.7049443067 3.539079 -1.3734998314
H 5.0343715361 5.242482 -1.1636501775
