208

H -9.2656397618 -0.444301595 2.8880516177
N -8.4061874494 -0.2563593455 3.1676150143
H -8.301331371 0.5871370693 3.6100645221
H -7.6162165022 -3.9532841552 0.483748646
O -7.5976126311 -2.1590193778 2.3765054749
H -7.4786917562 -4.9786488441 2.0505166486
C -7.3120219522 -1.0057676534 2.9899998398
C -7.0443847823 -4.2747101402 1.4619317289
C -6.4499913382 -3.0344506597 2.1067614538
H -6.2614771396 -4.7139035326 1.3285037441
O -6.1890065342 -0.688454044 3.3287682946
H -5.9688792445 -3.1523155263 3.0685548438
H -5.816084163 -2.5782826068 1.5090069703
H -3.0765330458 -1.6853265294 -0.5415096783
H -2.9237379643 -1.11129361 -2.1010575519
O -2.7036106746 -3.5751550923 -2.3612710026
H -2.6311400692 0.4502943964 -0.3610064522
C -2.4426258706 -1.2291584766 -1.1392641619
C -1.8482324264 0.0111010039 -0.494434437
C -1.5805952566 -3.2578414829 -2.0225025479
H -1.4139254526 0.7150397079 -1.0830193566
O -1.2950045777 -2.1045897584 -1.409008183
H -1.2764007066 -0.310324981 0.483748646
H -0.5912858378 -4.8507462056 -2.6425672302
N -0.4864297594 -4.0072497907 -2.2001177224
H 0.373022553 -3.8193075412 -1.9205543258
H -13.1789330458 -1.6853265294 -0.5415096783
H -13.026137964299998 -1.11129361 -2.1010575519
O -12.8060106746 -3.5751550923 -2.3612710026
H -12.7335400692 0.4502943964 -0.3610064522
C -12.5450258706 -1.2291584766 -1.1392641619
C -11.950632426399999 0.0111010039 -0.494434437
C -11.6829952566 -3.2578414829 -2.0225025479
H -11.5163254526 0.7150397079 -1.0830193566
O -11.3974045777 -2.1045897584 -1.409008183
H -11.3788007066 -0.310324981 0.483748646
H -10.693685837799999 -4.8507462056 -2.6425672302
N -10.5888297594 -4.0072497907 -2.2001177224
H -9.729377447 -3.8193075412 -1.9205543258
H -9.746300453219051 -8.507347454876612 -0.5415096783
H -9.59350537171905 -7.933314535476612 -2.1010575519
O -9.373378082019052 -10.397176017776612 -2.3612710026
H -9.300907476619052 -6.371726529076612 -0.3610064522
C -9.112393278019052 -8.051179402076611 -1.1392641619
C -8.51799983381905 -6.810919921576612 -0.494434437
C -8.250362664019052 -10.079862408376613 -2.0225025479
H -8.083692860019053 -6.106981217576612 -1.0830193566
O -7.964771985119052 -8.926610683876612 -1.409008183
H -7.946168114019052 -7.132345906476612 0.483748646
H -7.261053245219052 -11.672767131076611 -2.6425672302
N -7.156197166819052 -10.829270716176612 -2.2001177224
H -6.296744854419051 -10.641328466676612 -1.9205543258
H -8.1277330458 -1.6853265294 -0.5415096783
H -7.9749379643 -1.11129361 -2.1010575519
O -7.7548106746 -3.5751550923 -2.3612710026
H -7.6823400692 0.4502943964 -0.3610064522
C -7.4938258706 -1.2291584766 -1.1392641619
C -6.8994324264 0.0111010039 -0.494434437
C -6.6317952566 -3.2578414829 -2.0225025479
H -6.4651254526 0.7150397079 -1.0830193566
O -6.3462045777 -2.1045897584 -1.409008183
H -6.3276007066 -0.310324981 0.483748646
H -5.6424858378 -4.8507462056 -2.6425672302
N -5.5376297594 -4.0072497907 -2.2001177224
H -4.6781774469999995 -3.8193075412 -1.9205543258
H -10.027256708315525 -2.7637148313518076 6.678619365959327
H -9.874461626815524 -2.1896819119518076 5.119071492359327
O -9.654334337115525 -4.653543394251808 4.858858041659326
H -9.581863731715526 -0.6280939055518077 6.859122592059327
C -9.393349533115526 -2.307546778551808 6.080864882359327
C -8.798956088915524 -1.0672872980518078 6.725694607259327
C -8.531318919115526 -4.336229784851808 5.197626496359327
H -8.364649115115526 -0.36334859405180764 6.137109687659327
O -8.245728240215525 -3.1829780603518074 5.811120861259327
H -8.227124369115526 -1.3887132829518076 7.703877690259327
H -7.542009500315525 -5.929134507551808 4.577561814059327
N -7.437153421915525 -5.085638092651808 5.020011321859327
H -6.577701109515525 -4.897695843151808 5.299574718459327
H -6.5091656383809475 5.136694396076612 -0.5415096783
H -6.356370556880947 5.710727315476612 -2.1010575519
O -6.136243267180948 3.246865833176612 -2.3612710026
H -6.0637726617809475 7.272315321876612 -0.3610064522
C -5.8752584631809475 5.592862448876612 -1.1392641619
C -5.280865018980947 6.833121929376612 -0.494434437
C -5.013227849180947 3.564179442576612 -2.0225025479
H -4.846558045180947 7.537060633376612 -1.0830193566
O -4.727637170280947 4.717431167076612 -1.409008183
H -4.709033299180947 6.511695944476612 0.483748646
H -4.023918430380947 1.9712747198766118 -2.6425672302
N -3.9190623519809473 2.8147711347766116 -2.2001177224
H -3.0596100395809476 3.002713384276612 -1.9205543258
H -4.695100453219053 -8.507347454876612 -0.5415096783
H -4.542305371719053 -7.933314535476612 -2.1010575519
O -4.322178082019052 -10.397176017776612 -2.3612710026
H -4.249707476619053 -6.371726529076612 -0.3610064522
C -4.0611932780190525 -8.051179402076611 -1.1392641619
C -3.4667998338190524 -6.810919921576612 -0.494434437
C -3.1991626640190525 -10.079862408376613 -2.0225025479
H -3.0324928600190524 -6.106981217576612 -1.0830193566
O -2.9135719851190522 -8.926610683876612 -1.409008183
H -2.8949681140190524 -7.132345906476612 0.483748646
H -2.2098532452190525 -11.672767131076611 -2.6425672302
N -2.1049971668190524 -10.829270716176612 -2.2001177224
H -1.2455448544190524 -10.641328466676612 -1.9205543258
H -7.366116099284474 0.6340867069518077 -4.3320774265593265
N -6.506663786884475 0.8220289564518077 -4.052514029959327
H -6.4018077084844744 1.6655253712518077 -3.610064522159327
H -5.716692839684475 -2.8748958532481925 -6.736380398259326
O -5.698088968584474 -1.0806310758481923 -4.843623569359327
H -5.5791680936844745 -3.9002605421481924 -5.1696123956593265
C -5.412498289684475 0.07262064855180772 -4.2301292044593275
C -5.1448611197844745 -3.196321838248192 -5.758197315359327
C -4.550467675684475 -1.9560623577481924 -5.113367590459327
H -4.361953477084475 -3.635515230648192 -5.891625300159327
O -4.289482871684474 0.3899342579518077 -3.8913607496593268
H -4.069355581984475 -2.073927224348192 -4.1515742004593275
H -3.916560500484475 -1.4998943048481925 -5.711122073959327
H -4.976056708315526 -2.7637148313518076 6.678619365959327
H -4.823261626815525 -2.1896819119518076 5.119071492359327
O -4.6031343371155256 -4.653543394251808 4.858858041659326
H -4.530663731715526 -0.6280939055518077 6.859122592059327
C -4.342149533115526 -2.307546778551808 6.080864882359327
C -3.7477560889155255 -1.0672872980518078 6.725694607259327
C -3.480118919115526 -4.336229784851808 5.197626496359327
H -3.3134491151155254 -0.36334859405180764 6.137109687659327
O -3.1945282402155257 -3.1829780603518074 5.811120861259327
H -3.175924369115526 -1.3887132829518076 7.703877690259327
H -2.4908095003155255 -5.929134507551808 4.577561814059327
N -2.3859534219155254 -5.085638092651808 5.020011321859327
H -1.5265011095155256 -4.897695843151808 5.299574718459327
H -7.647072354380947 6.377719330476612 2.8880516177
N -6.787620041980949 6.565661579976612 3.1676150143
H -6.682763963580948 7.409157994776612 3.6100645221
H -5.997649094780948 2.868736770276612 0.483748646
O -5.979045223680947 4.663001547676612 2.3765054749
H -5.860124348780948 1.8433720813766117 2.0505166486
C -5.693454544780948 5.816253272076612 2.9899998398
C -5.425817374880948 2.547310785276612 1.4619317289
C -4.831423930780948 3.787570265776612 2.1067614538
H -4.642909732180948 2.108117392876612 1.3285037441
O -4.570439126780947 6.133566881476612 3.3287682946
H -4.350311837080948 3.669705399176612 3.0685548438
H -4.197516755580947 4.243738318676612 1.5090069703
H -5.8330071692190515 -7.266322520476612 2.8880516177
N -4.973554856819053 -7.078380270976612 3.1676150143
H -4.868698778419052 -6.234883856176612 3.6100645221
H -4.183583909619053 -10.775305080676612 0.483748646
O -4.164980038519053 -8.981040303276611 2.3765054749
H -4.046059163619052 -11.800669769576611 2.0505166486
C -3.879389359619053 -7.827788578876612 2.9899998398
C -3.6117521897190525 -11.096731065676611 1.4619317289
C -3.017358745619053 -9.856471585176612 2.1067614538
H -2.828844547019053 -11.535924458076611 1.3285037441
O -2.7563739416190525 -7.510474969476612 3.3287682946
H -2.5362466519190527 -9.974336451776612 3.0685548438
H -2.383451570419053 -9.400303532276613 1.5090069703
H -2.314916099284474 0.6340867069518077 -4.3320774265593265
N -1.4554637868844758 0.8220289564518077 -4.052514029959327
H -1.3506077084844748 1.6655253712518077 -3.610064522159327
H -0.6654928396844753 -2.8748958532481925 -6.736380398259326
O -0.6468889685844745 -1.0806310758481923 -4.843623569359327
H -0.5279680936844748 -3.9002605421481924 -5.1696123956593265
C -0.3612982896844752 0.07262064855180772 -4.2301292044593275
C -0.09366111978447478 -3.196321838248192 -5.758197315359327
C 0.5007323243155248 -1.9560623577481924 -5.113367590459327
H 0.6892465229155249 -3.635515230648192 -5.891625300159327
O 0.7617171283155253 0.3899342579518077 -3.8913607496593268
H 0.981844418015525 -2.073927224348192 -4.1515742004593275
H 1.134639499515525 -1.4998943048481925 -5.711122073959327
H -4.2144397618 -0.444301595 2.8880516177
N -3.354987449400001 -0.2563593455 3.1676150143
H -3.250131371 0.5871370693 3.6100645221
H -2.5650165022000007 -3.9532841552 0.483748646
O -2.5464126311 -2.1590193778 2.3765054749
H -2.4274917562000002 -4.9786488441 2.0505166486
C -2.2608219522000006 -1.0057676534 2.9899998398
C -1.9931847823000002 -4.2747101402 1.4619317289
C -1.3987913382000006 -3.0344506597 2.1067614538
H -1.2102771396000005 -4.7139035326 1.3285037441
O -1.1378065342 -0.688454044 3.3287682946
H -0.9176792445000004 -3.1523155263 3.0685548438
H -0.7648841630000005 -2.5782826068 1.5090069703
H -2.5958723543809477 6.377719330476612 2.8880516177
N -1.7364200419809492 6.565661579976612 3.1676150143
H -1.6315639635809482 7.409157994776612 3.6100645221
H -0.9464490947809487 2.868736770276612 0.483748646
O -0.927845223680948 4.663001547676612 2.3765054749
H -0.8089243487809483 1.8433720813766117 2.0505166486
C -0.6422545447809487 5.816253272076612 2.9899998398
C -0.37461737488094826 2.547310785276612 1.4619317289
C 0.21977606921905135 3.787570265776612 2.1067614538
H 0.4082902678190514 2.108117392876612 1.3285037441
O 0.4807608732190518 6.133566881476612 3.3287682946
H 0.7008881629190515 3.669705399176612 3.0685548438
H 0.8536832444190514 4.243738318676612 1.5090069703
H 0.8367602382000001 -0.444301595 2.8880516177
N 1.6962125505999985 -0.2563593455 3.1676150143
H 1.8010686289999995 0.5871370693 3.6100645221
H 2.486183497799999 -3.9532841552 0.483748646
O 2.5047873688999998 -2.1590193778 2.3765054749
H 2.6237082437999995 -4.9786488441 2.0505166486
C 2.790378047799999 -1.0057676534 2.9899998398
C 3.0580152176999995 -4.2747101402 1.4619317289
C 3.652408661799999 -3.0344506597 2.1067614538
H 3.840922860399999 -4.7139035326 1.3285037441
O 3.9133934657999996 -0.688454044 3.3287682946
H 4.133520755499999 -3.1523155263 3.0685548438
H 4.286315836999999 -2.5782826068 1.5090069703
