252

H -18.1276835612 1.8631375387 6.0878211496
C -17.5629095759 1.2520469511 5.5421609497
H -17.4683238752 2.4450154787 3.9179609404
H -17.4426472387 -0.2476543763 7.0200942041
C -17.1904367961 1.6177987991 4.2691431588
C -17.1542522129 0.0 6.0736204938
C -16.4035729055 0.7461693951 3.4678711543
C -16.3853104534 -0.859160591 5.3203467058
H -16.3203296242 1.9462629587 1.8049033546
H -16.0771803977 -1.7112555213 5.6632215406
C -16.0121995685 1.0941680284 2.1477781893
C -15.9939371164 -0.5111619577 4.0002537409
C -15.243257809 0.2350074374 1.3945044014
C -15.2070732258 -1.3827913617 3.1989817363
H -14.9548627832 0.4826618137 0.4480306911
H -14.9291861467 -2.2100080413 3.5501639547
C -14.834600446 -1.0170395137 1.9259639454
H -14.2698264607 -1.6281301013 1.3803037456
H -14.0853635612 1.3406348987 6.0878211496
C -13.5205895759 1.9517254863 5.5421609497
H -13.4260038752 0.7587569587 3.9179609404
H -13.4003272387 3.4514268137 7.0200942041
C -13.1481167961 1.5859736383 4.2691431588
C -13.1119322129 3.2037724374 6.0736204938
C -12.3612529055 2.4576030423 3.4678711543
C -12.3429904534 4.0629330284 5.3203467058
H -12.2780096242 1.2575094787 1.8049033546
H -12.0348603977 4.9150279587 5.6632215406
C -11.9698795685 2.109604409 2.1477781893
C -11.9516171164 3.7149343951 4.0002537409
C -11.200937809 2.968765 1.3945044014
C -11.1647532258 4.5865637991 3.1989817363
H -10.9125427832 2.7211106237 0.4480306911
H -10.8868661467 5.4137804787 3.5501639547
C -10.792280446 4.2208119511 1.9259639454
H -10.2275064607 4.8319025387 1.3803037456
H -22.170003561199998 -4.5968951012999995 6.0878211496
C -21.6052295759 -3.9858045136999998 5.5421609497
H -21.5106438752 -5.1787730412999995 3.9179609404
H -21.4849672387 -2.4861031863 7.0200942041
C -21.2327567961 -4.3515563617 4.2691431588
C -21.1965722129 -2.7337575625999997 6.0736204938
C -20.445892905500003 -3.4799269576999996 3.4678711543
C -20.4276304534 -1.8745969716 5.3203467058
H -20.3626496242 -4.6800205212999995 1.8049033546
H -20.1195003977 -1.0225020413 5.6632215406
C -20.054519568499998 -3.8279255909999996 2.1477781893
C -20.0362571164 -2.2225956049 4.0002537409
C -19.285577809 -2.968765 1.3945044014
C -19.2493932258 -1.3509662008999994 3.1989817363
H -18.9971827832 -3.2164193762999997 0.4480306911
H -18.9715061467 -0.5237495213000001 3.5501639547
C -18.876920446 -1.7167180488999998 1.9259639454
H -18.3121464607 -1.1056274613000001 1.3803037456
H -17.258450190873088 1.3406348986999992 -1.0125067598722346
C -16.693676205573087 1.951725486299999 -1.558166959772234
H -16.599090504873086 0.7587569586999993 -3.1823669690722345
H -16.573413868373088 3.451426813699999 -0.08023370537223418
C -16.32120342577309 1.5859736382999992 -2.831184750672234
C -16.285018842573088 3.203772437399999 -1.0267074156722344
C -15.534339535173089 2.4576030422999993 -3.6324567551722344
C -15.516077083073089 4.062933028399999 -1.779981203672235
H -15.451096253873086 1.2575094786999992 -5.295424554872234
H -15.207947027373088 4.915027958699999 -1.437106368872234
C -15.142966198173088 2.1096044089999992 -4.952549720172234
C -15.124703746073088 3.714934395099999 -3.1000741685722346
C -14.374024438673086 2.968764999999999 -5.705823508072235
C -14.337839855473089 4.5865637990999994 -3.9013461731722345
H -14.085629412873086 2.721110623699999 -6.652297218372235
H -14.059952776373088 5.413780478699999 -3.5501639547722346
C -13.965367075673086 4.220811951099999 -5.174363964072235
H -13.40059309037309 4.831902538699999 -5.7200241638722344
H -22.170003561199998 1.3406348987 6.0878211496
C -21.6052295759 1.9517254863 5.5421609497
H -21.5106438752 0.7587569587 3.9179609404
H -21.4849672387 3.4514268137 7.0200942041
C -21.2327567961 1.5859736383 4.2691431588
C -21.1965722129 3.2037724374 6.0736204938
C -20.445892905500003 2.4576030423 3.4678711543
C -20.4276304534 4.0629330284 5.3203467058
H -20.3626496242 1.2575094787 1.8049033546
H -20.1195003977 4.9150279587 5.6632215406
C -20.054519568499998 2.109604409 2.1477781893
C -20.0362571164 3.7149343951 4.0002537409
C -19.285577809 2.968765 1.3945044014
C -19.2493932258 4.5865637991 3.1989817363
H -18.9971827832 2.7211106237 0.4480306911
H -18.9715061467 5.4137804787 3.5501639547
C -18.876920446 4.2208119511 1.9259639454
H -18.3121464607 4.8319025387 1.3803037456
H -18.1276835612 -4.0743924612999995 6.0878211496
C -17.5629095759 -4.6854830489 5.5421609497
H -17.4683238752 -3.4925145213 3.9179609404
H -17.4426472387 -6.1851843763 7.0200942041
C -17.1904367961 -4.3197312009 4.2691431588
C -17.1542522129 -5.93753 6.0736204938
C -16.4035729055 -5.1913606049 3.4678711543
C -16.3853104534 -6.796690591 5.3203467058
H -16.3203296242 -3.9912670412999995 1.8049033546
H -16.0771803977 -7.6487855213 5.6632215406
C -16.0121995685 -4.8433619716 2.1477781893
C -15.9939371164 -6.4486919576999995 4.0002537409
C -15.243257809 -5.7025225626 1.3945044014
C -15.2070732258 -7.3203213617 3.1989817363
H -14.9548627832 -5.4548681863 0.4480306911
H -14.9291861467 -8.147538041299999 3.5501639547
C -14.834600446 -6.954569513699999 1.9259639454
H -14.2698264607 -7.5656601013 1.3803037456
H -14.0853635612 -4.5968951012999995 6.0878211496
C -13.5205895759 -3.9858045136999998 5.5421609497
H -13.4260038752 -5.1787730412999995 3.9179609404
H -13.4003272387 -2.4861031863 7.0200942041
C -13.1481167961 -4.3515563617 4.2691431588
C -13.1119322129 -2.7337575625999997 6.0736204938
C -12.3612529055 -3.4799269576999996 3.4678711543
C -12.3429904534 -1.8745969716 5.3203467058
H -12.2780096242 -4.6800205212999995 1.8049033546
H -12.0348603977 -1.0225020413 5.6632215406
C -11.9698795685 -3.8279255909999996 2.1477781893
C -11.9516171164 -2.2225956049 4.0002537409
C -11.200937809 -2.968765 1.3945044014
C -11.1647532258 -1.3509662008999994 3.1989817363
H -10.9125427832 -3.2164193762999997 0.4480306911
H -10.8868661467 -0.5237495213000001 3.5501639547
C -10.792280446 -1.7167180488999998 1.9259639454
H -10.2275064607 -1.1056274613000001 1.3803037456
H -13.216130190873088 1.863137538699999 -1.0125067598722346
C -12.651356205573087 1.2520469510999992 -1.558166959772234
H -12.556770504873086 2.445015478699999 -3.1823669690722345
H -12.531093868373087 -0.24765437630000084 -0.08023370537223418
C -12.278883425773085 1.6177987990999991 -2.831184750672234
C -12.242698842573088 -8.293977620061443e-16 -1.0267074156722344
C -11.492019535173085 0.7461693950999992 -3.6324567551722344
C -11.473757083073085 -0.8591605910000008 -1.779981203672235
H -11.408776253873086 1.946262958699999 -5.295424554872234
H -11.165627027373088 -1.711255521300001 -1.437106368872234
C -11.100646198173088 1.094168028399999 -4.952549720172234
C -11.082383746073088 -0.5111619577000007 -3.1000741685722346
C -10.331704438673086 0.23500743739999916 -5.705823508072235
C -10.295519855473088 -1.382791361700001 -3.9013461731722345
H -10.043309412873086 0.48266181369999916 -6.652297218372235
H -10.017632776373087 -2.210008041300001 -3.5501639547722346
C -9.923047075673086 -1.0170395137000008 -5.174363964072235
H -9.358273090373086 -1.628130101300001 -5.7200241638722344
H -18.99691693152691 1.340634898700001 13.188149059072234
C -18.432142946226914 1.9517254863000009 12.642488859172236
H -18.337557245526913 0.7587569587000008 11.018288849872235
H -18.31188060902691 3.451426813700001 14.120422113572236
C -18.059670166426912 1.585973638300001 11.369471068272235
C -18.02348558322691 3.203772437400001 13.173948403272234
C -17.272806275826913 2.457603042300001 10.568199063772234
C -17.254543823726912 4.062933028400001 12.420674615272233
H -17.189562994526913 1.257509478700001 8.905231264072235
H -16.94641376802691 4.9150279587000005 12.763549450072235
C -16.88143293882691 2.109604409000001 9.248106098772235
C -16.86317048672691 3.7149343951000007 11.100581650372234
C -16.112491179326913 2.9687650000000008 8.494832310872235
C -16.076306596126912 4.586563799100001 10.299309645772235
H -15.824096153526913 2.721110623700001 7.548358600572234
H -15.798419517026911 5.413780478700001 10.650491864172235
C -15.703833816326913 4.220811951100001 9.026291854872234
H -15.139059831026913 4.8319025387000005 8.480631655072234
H -18.1276835612 7.8006675387 6.0878211496
C -17.5629095759 7.189576951099999 5.5421609497
H -17.4683238752 8.382545478699999 3.9179609404
H -17.4426472387 5.6898756237 7.0200942041
C -17.1904367961 7.5553287991 4.2691431588
C -17.1542522129 5.93753 6.0736204938
C -16.4035729055 6.6836993951 3.4678711543
C -16.3853104534 5.078369409 5.3203467058
H -16.3203296242 7.8837929587 1.8049033546
H -16.0771803977 4.2262744787 5.6632215406
C -16.0121995685 7.031698028399999 2.1477781893
C -15.9939371164 5.4263680423 4.0002537409
C -15.243257809 6.1725374374 1.3945044014
C -15.2070732258 4.5547386383 3.1989817363
H -14.9548627832 6.4201918137 0.4480306911
H -14.9291861467 3.7275219586999997 3.5501639547
C -14.834600446 4.9204904863 1.9259639454
H -14.2698264607 4.3093998987 1.3803037456
H -14.0853635612 7.2781648987 6.0878211496
C -13.5205895759 7.8892554863 5.5421609497
H -13.4260038752 6.6962869587 3.9179609404
H -13.4003272387 9.3889568137 7.0200942041
C -13.1481167961 7.523503638299999 4.2691431588
C -13.1119322129 9.1413024374 6.0736204938
C -12.3612529055 8.3951330423 3.4678711543
C -12.3429904534 10.000463028399999 5.3203467058
H -12.2780096242 7.1950394787 1.8049033546
H -12.0348603977 10.8525579587 5.6632215406
C -11.9698795685 8.047134409 2.1477781893
C -11.9516171164 9.652464395099999 4.0002537409
C -11.200937809 8.906295 1.3945044014
C -11.1647532258 10.524093799100001 3.1989817363
H -10.9125427832 8.6586406237 0.4480306911
H -10.8868661467 11.3513104787 3.5501639547
C -10.792280446 10.158341951099999 1.9259639454
H -10.2275064607 10.769432538699999 1.3803037456
H -10.043043561200001 1.8631375387 6.0878211496
C -9.4782695759 1.2520469511 5.5421609497
H -9.3836838752 2.4450154787 3.9179609404
H -9.3580072387 -0.2476543763 7.0200942041
C -9.105796796099998 1.6177987991 4.2691431588
C -9.069612212900001 0.0 6.0736204938
C -8.318932905499999 0.7461693951 3.4678711543
C -8.300670453399999 -0.859160591 5.3203467058
H -8.235689624199999 1.9462629587 1.8049033546
H -7.992540397700001 -1.7112555213 5.6632215406
C -7.927559568500001 1.0941680284 2.1477781893
C -7.909297116399999 -0.5111619577 4.0002537409
C -7.158617808999999 0.2350074374 1.3945044014
C -7.1224332258 -1.3827913617 3.1989817363
H -6.870222783199999 0.4826618137 0.4480306911
H -6.844546146699999 -2.2100080413 3.5501639547
C -6.749960445999999 -1.0170395137 1.9259639454
H -6.185186460699999 -1.6281301013 1.3803037456
H -14.954596931526915 1.8631375387000009 13.188149059072234
C -14.389822946226914 1.252046951100001 12.642488859172236
H -14.295237245526913 2.4450154787000007 11.018288849872235
H -14.269560609026914 -0.24765437629999917 14.120422113572236
C -14.017350166426912 1.617798799100001 11.369471068272235
C -13.981165583226915 8.293977620061443e-16 13.173948403272234
C -13.230486275826912 0.7461693951000008 10.568199063772234
C -13.212223823726912 -0.8591605909999992 12.420674615272233
H -13.147242994526913 1.9462629587000009 8.905231264072235
H -12.904093768026915 -1.7112555212999991 12.763549450072235
C -12.839112938826915 1.0941680284000008 9.248106098772235
C -12.820850486726911 -0.5111619576999992 11.100581650372234
C -12.070171179326913 0.23500743740000082 8.494832310872235
C -12.033986596126912 -1.3827913616999992 10.299309645772235
H -11.781776153526913 0.48266181370000083 7.548358600572234
H -11.756099517026911 -2.210008041299999 10.650491864172235
C -11.661513816326913 -1.017039513699999 9.026291854872234
H -11.096739831026913 -1.6281301012999991 8.480631655072234
H -10.043043561200001 7.8006675387 6.0878211496
C -9.4782695759 7.189576951099999 5.5421609497
H -9.3836838752 8.382545478699999 3.9179609404
H -9.3580072387 5.6898756237 7.0200942041
C -9.105796796099998 7.5553287991 4.2691431588
C -9.069612212900001 5.93753 6.0736204938
C -8.318932905499999 6.6836993951 3.4678711543
C -8.300670453399999 5.078369409 5.3203467058
H -8.235689624199999 7.8837929587 1.8049033546
H -7.992540397700001 4.2262744787 5.6632215406
C -7.927559568500001 7.031698028399999 2.1477781893
C -7.909297116399999 5.4263680423 4.0002537409
C -7.158617808999999 6.1725374374 1.3945044014
C -7.1224332258 4.5547386383 3.1989817363
H -6.870222783199999 6.4201918137 0.4480306911
H -6.844546146699999 3.7275219586999997 3.5501639547
C -6.749960445999999 4.9204904863 1.9259639454
H -6.185186460699999 4.3093998987 1.3803037456
