224

H -5.300429384 -0.59733915 -0.8851671061
O -4.4415269448 0.64426005 0.8695090921
O -4.3564188081 -0.6171903 -0.9864548844
C -3.8372060588 0.0324837 0.0
C -2.3014585606 0.0 0.0009786259
O -1.7822458113 0.649674 0.9874335103
O -1.6971376745 -0.61177635 -0.8685304662
H -0.8382352353 0.62982285 0.886145732
H -4.1159748932 3.63757285 -3.3317317995
O -3.257072454 2.39597365 -1.5770556014
O -3.1719643173 3.657424 -3.4330195778
C -2.652751568 3.00775 -2.4465646934
C -1.1170040698 3.0402337 -2.4455860676
O -0.5977913205 2.3905597 -1.4591311832
O -0.5126831837 3.65201005 -3.3150951596
H 0.3462192555 2.41041085 -1.5604189615
H -7.077465911599543 -2.377927150000001 -8.224861186394719
O -6.218563472399543 -3.619526350000001 -6.470184988294718
O -6.1334553356995425 -2.3580760000000014 -8.326148964694719
C -5.614242586399543 -3.007750000000001 -7.339694080294718
C -4.078495088199543 -2.9752663000000013 -7.338715454494718
O -3.5592823388995427 -3.6249403000000013 -6.352260570094718
O -3.474174202099543 -2.3634899500000013 -8.208224546494717
H -2.615271762899543 -3.6050891500000013 -6.453548348394718
H -9.4463748932 -2.37792715 -3.3317317995
O -8.587472454 -3.61952635 -1.5770556014
O -8.5023643173 -2.3580760000000005 -3.4330195778
C -7.983151568 -3.00775 -2.4465646934
C -6.4474040698 -2.9752663000000004 -2.4455860676
O -5.9281913205 -3.6249403000000004 -1.4591311832
O -5.8430831837 -2.3634899500000004 -3.3150951596
H -4.9841807445 -3.6050891500000004 -1.5604189615
H -8.261920402399543 -0.5973391500000005 -5.778296492994718
O -7.4030179631995425 0.6442600499999995 -4.023620294794718
O -7.317909826499543 -0.6171903000000004 -5.879584271294718
C -6.798697077199543 0.03248369999999952 -4.893129386894718
C -5.262949578999542 -4.779373330336544e-16 -4.892150760994718
O -4.743736829699543 0.6496739999999995 -3.9056958765947183
O -4.658628692899542 -0.6117763500000004 -5.761659853094718
H -3.799726253699543 0.6298228499999996 -4.006983654894718
H -7.077465911599543 3.6375728499999997 -8.224861186394719
O -6.218563472399543 2.3959736499999997 -6.470184988294718
O -6.1334553356995425 3.6574239999999993 -8.326148964694719
C -5.614242586399543 3.0077499999999997 -7.339694080294718
C -4.078495088199543 3.0402336999999995 -7.338715454494718
O -3.5592823388995427 2.3905596999999994 -6.352260570094718
O -3.474174202099543 3.6520100499999995 -8.208224546494717
H -2.615271762899543 2.4104108499999994 -6.453548348394718
H -10.630829384 -0.59733915 -0.8851671061
O -9.7719269448 0.64426005 0.8695090921
O -9.6868188081 -0.6171903 -0.9864548844
C -9.1676060588 0.0324837 0.0
C -7.6318585606 0.0 0.0009786259
O -7.1126458113 0.649674 0.9874335103
O -7.0275376744999996 -0.61177635 -0.8685304662
H -6.1686352353 0.62982285 0.886145732
H -9.4463748932 3.63757285 -3.3317317995
O -8.587472454 2.39597365 -1.5770556014
O -8.5023643173 3.657424 -3.4330195778
C -7.983151568 3.00775 -2.4465646934
C -6.4474040698 3.0402337 -2.4455860676
O -5.9281913205 2.3905597 -1.4591311832
O -5.8430831837 3.65201005 -3.3150951596
H -4.9841807445 2.41041085 -1.5604189615
H -8.261920402399543 5.41816085 -5.778296492994718
O -7.4030179631995425 6.659760049999999 -4.023620294794718
O -7.317909826499543 5.3983096999999995 -5.879584271294718
C -6.798697077199543 6.0479837 -4.893129386894718
C -5.262949578999542 6.015499999999999 -4.892150760994718
O -4.743736829699543 6.6651739999999995 -3.9056958765947183
O -4.658628692899542 5.40372365 -5.761659853094718
H -3.799726253699543 6.6453228499999994 -4.006983654894718
H -10.630829384 5.4181608500000005 -0.8851671061
O -9.7719269448 6.65976005 0.8695090921
O -9.6868188081 5.3983097 -0.9864548844
C -9.1676060588 6.0479837000000005 0.0
C -7.6318585606 6.0155 0.0009786259
O -7.1126458113 6.665174 0.9874335103
O -7.0275376744999996 5.40372365 -0.8685304662
H -6.1686352353 6.64532285 0.886145732
H -5.300429384 -6.61283915 -0.8851671061
O -4.4415269448 -5.3712399500000005 0.8695090921
O -4.3564188081 -6.6326903 -0.9864548844
C -3.8372060588000005 -5.9830163 0.0
C -2.3014585606000004 -6.0155 0.0009786259
O -1.7822458113000004 -5.365826 0.9874335103
O -1.6971376745000004 -6.627276350000001 -0.8685304662
H -0.8382352353000003 -5.38567715 0.886145732
H -4.1159748932 -2.37792715 -3.3317317995
O -3.2570724540000002 -3.61952635 -1.5770556014
O -3.1719643173000005 -2.3580760000000005 -3.4330195778
C -2.6527515680000002 -3.00775 -2.4465646934
C -1.1170040698000006 -2.9752663000000004 -2.4455860676
O -0.5977913205000003 -3.6249403000000004 -1.4591311832
O -0.5126831837000003 -2.3634899500000004 -3.3150951596
H 0.3462192554999996 -3.6050891500000004 -1.5604189615
H -6.484883874800458 -2.377927149999999 1.5613975873947181
O -5.625981435600457 -3.6195263499999992 3.3160737854947184
O -5.540873298900458 -2.3580759999999996 1.460109809094718
C -5.021660549600457 -3.0077499999999993 2.446564693494718
C -3.4859130514004577 -2.9752662999999995 2.4475433192947182
O -2.9667003021004574 -3.6249402999999996 3.433998203694718
O -2.8815921653004577 -2.3634899499999995 1.5780342272947183
H -2.0226897261004577 -3.6050891499999995 3.332710425394718
H -2.931520402399543 -0.5973391500000005 -5.778296492994718
O -2.0726179631995425 0.6442600499999995 -4.023620294794718
O -1.9875098264995428 -0.6171903000000004 -5.879584271294718
C -1.468297077199543 0.03248369999999952 -4.893129386894718
C 0.06745042100045717 -4.779373330336544e-16 -4.892150760994718
O 0.5866631703004572 0.6496739999999995 -3.9056958765947183
O 0.6717713071004572 -0.6117763500000004 -5.761659853094718
H 1.5306737463004572 0.6298228499999996 -4.006983654894718
H -1.7470659115995426 3.6375728499999997 -8.224861186394719
O -0.8881634723995426 2.3959736499999997 -6.470184988294718
O -0.8030553356995429 3.6574239999999993 -8.326148964694719
C -0.28384258639954263 3.0077499999999997 -7.339694080294718
C 1.251904911800457 3.0402336999999995 -7.338715454494718
O 1.7711176611004573 2.3905596999999994 -6.352260570094718
O 1.856225797900457 3.6520100499999995 -8.208224546494717
H 2.715128237100457 2.4104108499999994 -6.453548348394718
H -7.669338365600457 -0.5973391499999996 4.007962280794718
O -6.810435926400457 0.6442600500000004 5.7626384789947185
O -6.725327789700457 -0.6171902999999995 3.906674502494718
C -6.206115040400457 0.032483700000000476 4.893129386894718
C -4.670367542200458 4.779373330336544e-16 4.894108012794718
O -4.151154792900457 0.6496740000000004 5.880562897194718
O -4.066046656100458 -0.6117763499999995 4.024598920694718
H -3.207144216900457 0.6298228500000005 5.779275118894718
H -6.484883874800457 3.6375728500000006 1.5613975873947181
O -5.6259814356004565 2.3959736500000006 3.3160737854947184
O -5.540873298900458 3.6574240000000002 1.460109809094718
C -5.0216605496004565 3.0077500000000006 2.446564693494718
C -3.4859130514004573 3.0402337000000004 2.4475433192947182
O -2.966700302100457 2.3905597000000003 3.433998203694718
O -2.8815921653004573 3.6520100500000003 1.5780342272947183
H -2.0226897261004573 2.4104108500000003 3.332710425394718
H -2.9315204023995425 5.41816085 -5.778296492994718
O -2.072617963199542 6.659760049999999 -4.023620294794718
O -1.9875098264995423 5.3983096999999995 -5.879584271294718
C -1.4682970771995425 6.0479837 -4.893129386894718
C 0.06745042100045762 6.015499999999999 -4.892150760994718
O 0.5866631703004577 6.6651739999999995 -3.9056958765947183
O 0.6717713071004576 5.40372365 -5.761659853094718
H 1.5306737463004576 6.6453228499999994 -4.006983654894718
H -5.300429384 5.4181608500000005 -0.8851671061
O -4.4415269448 6.65976005 0.8695090921
O -4.3564188081 5.3983097 -0.9864548844
C -3.8372060587999997 6.0479837000000005 0.0
C -2.3014585605999995 6.0155 0.0009786259
O -1.7822458112999995 6.665174 0.9874335103
O -1.6971376744999995 5.40372365 -0.8685304662
H -0.8382352352999997 6.64532285 0.886145732
H -4.1159748932 9.653072850000001 -3.3317317995
O -3.2570724539999993 8.411473650000001 -1.5770556014
O -3.1719643172999996 9.672924 -3.4330195778
C -2.6527515679999993 9.02325 -2.4465646934
C -1.1170040697999997 9.055733700000001 -2.4455860676
O -0.5977913204999996 8.4060597 -1.4591311832
O -0.5126831836999997 9.66751005 -3.3150951596
H 0.3462192555000004 8.425910850000001 -1.5604189615
H 1.2144251068000003 -2.37792715 -3.3317317995
O 2.0733275460000002 -3.61952635 -1.5770556014
O 2.1584356827 -2.3580760000000005 -3.4330195778
C 2.6776484320000002 -3.00775 -2.4465646934
C 4.2133959302 -2.9752663000000004 -2.4455860676
O 4.7326086795 -3.6249403000000004 -1.4591311832
O 4.8177168163 -2.3634899500000004 -3.3150951596
H 5.6766192555 -3.6050891500000004 -1.5604189615
H -1.1544838748004569 -2.377927149999999 1.5613975873947181
O -0.2955814356004569 -3.6195263499999992 3.3160737854947184
O -0.21047329890045718 -2.3580759999999996 1.460109809094718
C 0.3087394503995431 -3.0077499999999993 2.446564693494718
C 1.8444869485995428 -2.9752662999999995 2.4475433192947182
O 2.363699697899543 -3.6249402999999996 3.433998203694718
O 2.4488078346995428 -2.3634899499999995 1.5780342272947183
H 3.3077102738995428 -3.6050891499999995 3.332710425394718
H 0.02997061599999995 -0.59733915 -0.8851671061
O 0.8888730552000004 0.64426005 0.8695090921
O 0.9739811919000001 -0.6171903 -0.9864548844
C 1.4931939412 0.0324837 0.0
C 3.0289414394 0.0 0.0009786259
O 3.5481541887 0.649674 0.9874335103
O 3.6332623255 -0.61177635 -0.8685304662
H 4.4921647647 0.62982285 0.886145732
H 1.2144251068000003 3.63757285 -3.3317317995
O 2.0733275460000002 2.39597365 -1.5770556014
O 2.1584356827 3.657424 -3.4330195778
C 2.6776484320000002 3.00775 -2.4465646934
C 4.2133959302 3.0402337 -2.4455860676
O 4.7326086795 2.3905597 -1.4591311832
O 4.8177168163 3.65201005 -3.3150951596
H 5.6766192555 2.41041085 -1.5604189615
H -2.338938365600457 -0.5973391499999996 4.007962280794718
O -1.4800359264004568 0.6442600500000004 5.7626384789947185
O -1.394927789700457 -0.6171902999999995 3.906674502494718
C -0.8757150404004572 0.032483700000000476 4.893129386894718
C 0.6600324577995429 4.779373330336544e-16 4.894108012794718
O 1.179245207099543 0.6496740000000004 5.880562897194718
O 1.264353343899543 -0.6117763499999995 4.024598920694718
H 2.123255783099543 0.6298228500000005 5.779275118894718
H -1.1544838748004569 3.6375728500000006 1.5613975873947181
O -0.2955814356004569 2.3959736500000006 3.3160737854947184
O -0.21047329890045718 3.6574240000000002 1.460109809094718
C 0.3087394503995431 3.0077500000000006 2.446564693494718
C 1.8444869485995428 3.0402337000000004 2.4475433192947182
O 2.363699697899543 2.3905597000000003 3.433998203694718
O 2.4488078346995428 3.6520100500000003 1.5780342272947183
H 3.3077102738995428 2.4104108500000003 3.332710425394718
H 0.02997061599999995 5.4181608500000005 -0.8851671061
O 0.8888730552000004 6.65976005 0.8695090921
O 0.9739811919000001 5.3983097 -0.9864548844
C 1.4931939412 6.0479837000000005 0.0
C 3.0289414394 6.0155 0.0009786259
O 3.5481541887 6.665174 0.9874335103
O 3.6332623255 5.40372365 -0.8685304662
H 4.4921647647 6.64532285 0.886145732
H -2.338938365600457 5.418160850000001 4.007962280794718
O -1.4800359264004568 6.659760050000001 5.7626384789947185
O -1.394927789700457 5.398309700000001 3.906674502494718
C -0.8757150404004572 6.047983700000001 4.893129386894718
C 0.6600324577995429 6.015500000000001 4.894108012794718
O 1.179245207099543 6.665174000000001 5.880562897194718
O 1.264353343899543 5.403723650000002 4.024598920694718
H 2.123255783099543 6.645322850000001 5.779275118894718
