240

H -3.82179239 -1.02726739 -0.852564784
N -3.204202365 -0.409677365 -1.350676698
H -3.19358317 -0.39905817 -2.34737
C -2.39546683 0.39905817 -0.646935172
O -2.39546683 0.39905817 0.611255148
H -1.59735049 1.19717451 -2.34737
N -1.586731295 1.207793705 -1.350676698
H -0.96914127 1.82538373 -0.852564784
H -1.02726739 -0.96914127 1.170868156
N -0.409677365 -1.586731295 1.66898007
H -0.39905817 -1.59735049 2.665673372
O 0.39905817 -2.39546683 -0.292951776
C 0.39905817 -2.39546683 0.965238544
H 1.19717451 -3.19358317 2.665673372
N 1.207793705 -3.204202365 1.66898007
H 1.82538373 -3.82179239 1.170868156
H -6.616317390000001 -0.9691412700000004 -3.5238718440000003
N -5.998727365000001 -1.5867312950000003 -3.0257599300000004
H -5.98810817 -1.5973504900000002 -2.0290666280000003
O -5.18999183 -2.3954668300000006 -4.987691776
C -5.18999183 -2.3954668300000006 -3.7295014560000004
H -4.39187549 -3.1935831700000006 -2.0290666280000003
N -4.381256295 -3.2042023650000004 -3.0257599300000004
H -3.7636662700000003 -3.8217923900000006 -3.5238718440000003
H -9.410842390000001 -1.02726739 -0.852564784
N -8.793252365 -0.409677365 -1.350676698
H -8.78263317 -0.39905817 -2.34737
C -7.9845168300000005 0.39905817 -0.646935172
O -7.9845168300000005 0.39905817 0.611255148
H -7.1864004900000005 1.19717451 -2.34737
N -7.175781295 1.207793705 -1.350676698
H -6.55819127 1.82538373 -0.852564784
H -6.616317390000001 -0.96914127 1.170868156
N -5.998727365000001 -1.586731295 1.66898007
H -5.98810817 -1.59735049 2.665673372
O -5.18999183 -2.39546683 -0.292951776
C -5.18999183 -2.39546683 0.965238544
H -4.39187549 -3.19358317 2.665673372
N -4.381256295 -3.204202365 1.66898007
H -3.7636662700000003 -3.82179239 1.170868156
H -9.410842390000001 -1.0272673899999998 3.8421752160000002
N -8.793252365 -0.40967736499999974 3.3440633020000003
H -8.78263317 -0.3990581699999997 2.34737
C -7.9845168300000005 0.39905817000000027 4.047804828
O -7.9845168300000005 0.39905817000000027 5.305995148
H -7.1864004900000005 1.1971745100000002 2.34737
N -7.175781295 1.2077937050000003 3.3440633020000003
H -6.55819127 1.8253837300000002 3.8421752160000002
H -6.616317390000001 -0.9691412699999997 5.865608156
N -5.998727365000001 -1.5867312949999999 6.36372007
H -5.98810817 -1.5973504899999997 7.360413372
O -5.18999183 -2.3954668299999997 4.401788224000001
C -5.18999183 -2.3954668299999997 5.659978544
H -4.39187549 -3.1935831699999997 7.360413372
N -4.381256295 -3.2042023649999996 6.36372007
H -3.7636662700000003 -3.8217923899999997 5.865608156
H -6.616317390000001 4.619908730000001 -3.5238718440000003
N -5.998727365000001 4.002318705 -3.0257599300000004
H -5.98810817 3.99169951 -2.0290666280000003
O -5.18999183 3.19358317 -4.987691776
C -5.18999183 3.19358317 -3.7295014560000004
H -4.39187549 2.39546683 -2.0290666280000003
N -4.381256295 2.3848476350000003 -3.0257599300000004
H -3.7636662700000003 1.7672576100000001 -3.5238718440000003
H -6.616317390000001 4.619908730000001 1.170868156
N -5.998727365000001 4.002318705 1.66898007
H -5.98810817 3.99169951 2.665673372
O -5.18999183 3.19358317 -0.292951776
C -5.18999183 3.19358317 0.965238544
H -4.39187549 2.39546683 2.665673372
N -4.381256295 2.3848476350000003 1.66898007
H -3.7636662700000003 1.7672576100000001 1.170868156
H -3.8217923900000006 -6.616317390000001 -5.5473047840000005
N -3.2042023650000004 -5.998727365000001 -6.045416698
H -3.1935831700000006 -5.98810817 -7.042110000000001
C -2.3954668300000006 -5.18999183 -5.341675172
O -2.3954668300000006 -5.18999183 -4.083484852000001
H -1.5973504900000006 -4.39187549 -7.042110000000001
N -1.5867312950000008 -4.381256295 -6.045416698
H -0.9691412700000007 -3.7636662700000003 -5.5473047840000005
H -1.0272673900000007 -6.55819127 -3.5238718440000003
N -0.4096773650000006 -7.175781295 -3.0257599300000004
H -0.3990581700000006 -7.1864004900000005 -2.0290666280000003
O 0.3990581699999994 -7.9845168300000005 -4.987691776
C 0.3990581699999994 -7.9845168300000005 -3.7295014560000004
H 1.1971745099999993 -8.78263317 -2.0290666280000003
N 1.2077937049999994 -8.793252365 -3.0257599300000004
H 1.8253837299999993 -9.410842390000001 -3.5238718440000003
H -3.8217923900000006 -6.616317390000001 -0.852564784
N -3.2042023650000004 -5.998727365000001 -1.350676698
H -3.1935831700000006 -5.98810817 -2.34737
C -2.3954668300000006 -5.18999183 -0.646935172
O -2.3954668300000006 -5.18999183 0.611255148
H -1.5973504900000004 -4.39187549 -2.34737
N -1.5867312950000005 -4.381256295 -1.350676698
H -0.9691412700000004 -3.7636662700000003 -0.852564784
H -1.0272673900000004 -6.55819127 1.170868156
N -0.40967736500000035 -7.175781295 1.66898007
H -0.3990581700000003 -7.1864004900000005 2.665673372
O 0.39905816999999966 -7.9845168300000005 -0.292951776
C 0.39905816999999966 -7.9845168300000005 0.965238544
H 1.1971745099999995 -8.78263317 2.665673372
N 1.2077937049999996 -8.793252365 1.66898007
H 1.8253837299999995 -9.410842390000001 1.170868156
H -3.82179239 -6.616317390000001 3.8421752160000002
N -3.204202365 -5.998727365000001 3.3440633020000003
H -3.19358317 -5.98810817 2.34737
C -2.39546683 -5.18999183 4.047804828
O -2.39546683 -5.18999183 5.305995148
H -1.59735049 -4.39187549 2.34737
N -1.586731295 -4.381256295 3.3440633020000003
H -0.96914127 -3.7636662700000003 3.8421752160000002
H -3.8217923900000006 -1.0272673900000002 -5.5473047840000005
N -3.2042023650000004 -0.4096773650000003 -6.045416698
H -3.1935831700000006 -0.39905817000000027 -7.042110000000001
C -2.3954668300000006 0.3990581699999997 -5.341675172
O -2.3954668300000006 0.3990581699999997 -4.083484852000001
H -1.5973504900000002 1.1971745099999997 -7.042110000000001
N -1.5867312950000003 1.2077937049999998 -6.045416698
H -0.9691412700000004 1.8253837299999998 -5.5473047840000005
H -1.0272673900000002 -0.9691412700000004 -3.5238718440000003
N -0.4096773650000003 -1.5867312950000003 -3.0257599300000004
H -0.39905817000000027 -1.5973504900000002 -2.0290666280000003
O 0.3990581699999997 -2.3954668300000006 -4.987691776
C 0.3990581699999997 -2.3954668300000006 -3.7295014560000004
H 1.1971745099999997 -3.1935831700000006 -2.0290666280000003
N 1.2077937049999998 -3.2042023650000004 -3.0257599300000004
H 1.8253837299999998 -3.8217923900000006 -3.5238718440000003
H -3.8217923899999997 -1.0272673899999998 3.8421752160000002
N -3.2042023649999996 -0.40967736499999974 3.3440633020000003
H -3.1935831699999997 -0.3990581699999997 2.34737
C -2.3954668299999997 0.39905817000000027 4.047804828
O -2.3954668299999997 0.39905817000000027 5.305995148
H -1.5973504899999997 1.1971745100000002 2.34737
N -1.5867312949999999 1.2077937050000003 3.3440633020000003
H -0.9691412699999997 1.8253837300000002 3.8421752160000002
H -1.0272673899999998 -0.9691412699999997 5.865608156
N -0.40967736499999974 -1.5867312949999999 6.36372007
H -0.3990581699999997 -1.5973504899999997 7.360413372
O 0.39905817000000027 -2.3954668299999997 4.401788224000001
C 0.39905817000000027 -2.3954668299999997 5.659978544
H 1.1971745100000002 -3.1935831699999997 7.360413372
N 1.2077937050000003 -3.2042023649999996 6.36372007
H 1.8253837300000002 -3.8217923899999997 5.865608156
H -1.02726739 4.619908730000001 -3.5238718440000003
N -0.40967736499999996 4.002318705 -3.0257599300000004
H -0.39905816999999993 3.99169951 -2.0290666280000003
O 0.39905817000000005 3.19358317 -4.987691776
C 0.39905817000000005 3.19358317 -3.7295014560000004
H 1.19717451 2.39546683 -2.0290666280000003
N 1.207793705 2.3848476350000003 -3.0257599300000004
H 1.82538373 1.7672576100000001 -3.5238718440000003
H -3.8217923899999997 4.56178261 -0.852564784
N -3.2042023649999996 5.179372635 -1.350676698
H -3.1935831699999997 5.18999183 -2.34737
C -2.3954668299999997 5.98810817 -0.646935172
O -2.3954668299999997 5.98810817 0.611255148
H -1.5973504899999995 6.78622451 -2.34737
N -1.5867312949999997 6.796843705000001 -1.350676698
H -0.9691412699999997 7.414433730000001 -0.852564784
H -1.0272673899999996 4.619908730000001 1.170868156
N -0.4096773649999997 4.002318705 1.66898007
H -0.39905816999999966 3.99169951 2.665673372
O 0.3990581700000003 3.19358317 -0.292951776
C 0.3990581700000003 3.19358317 0.965238544
H 1.1971745100000004 2.39546683 2.665673372
N 1.2077937050000005 2.3848476350000003 1.66898007
H 1.8253837300000004 1.7672576100000001 1.170868156
H -3.8217923899999997 4.56178261 3.8421752160000002
N -3.2042023649999996 5.179372635 3.3440633020000003
H -3.1935831699999997 5.18999183 2.34737
C -2.3954668299999997 5.98810817 4.047804828
O -2.3954668299999997 5.98810817 5.305995148
H -1.5973504899999993 6.78622451 2.34737
N -1.5867312949999994 6.796843705000001 3.3440633020000003
H -0.9691412699999994 7.414433730000001 3.8421752160000002
H -1.0272673899999993 4.619908730000001 5.865608156
N -0.4096773649999994 4.002318705 6.36372007
H -0.3990581699999994 3.99169951 7.360413372
O 0.3990581700000006 3.19358317 4.401788224000001
C 0.3990581700000006 3.19358317 5.659978544
H 1.1971745100000006 2.39546683 7.360413372
N 1.2077937050000007 2.3848476350000003 6.36372007
H 1.8253837300000006 1.7672576100000001 5.865608156
H 1.7672576100000001 -6.616317390000001 -0.852564784
N 2.3848476350000003 -5.998727365000001 -1.350676698
H 2.39546683 -5.98810817 -2.34737
C 3.19358317 -5.18999183 -0.646935172
O 3.19358317 -5.18999183 0.611255148
H 3.99169951 -4.39187549 -2.34737
N 4.002318705 -4.381256295 -1.350676698
H 4.619908730000001 -3.7636662700000003 -0.852564784
H 1.7672576100000001 -6.616317390000001 3.8421752160000002
N 2.3848476350000003 -5.998727365000001 3.3440633020000003
H 2.39546683 -5.98810817 2.34737
C 3.19358317 -5.18999183 4.047804828
O 3.19358317 -5.18999183 5.305995148
H 3.99169951 -4.39187549 2.34737
N 4.002318705 -4.381256295 3.3440633020000003
H 4.619908730000001 -3.7636662700000003 3.8421752160000002
H 1.7672576100000001 -1.0272673900000002 -5.5473047840000005
N 2.3848476350000003 -0.4096773650000003 -6.045416698
H 2.39546683 -0.39905817000000027 -7.042110000000001
C 3.19358317 0.3990581699999997 -5.341675172
O 3.19358317 0.3990581699999997 -4.083484852000001
H 3.99169951 1.1971745099999997 -7.042110000000001
N 4.002318705 1.2077937049999998 -6.045416698
H 4.619908730000001 1.8253837299999998 -5.5473047840000005
H 4.56178261 -0.9691412700000004 -3.5238718440000003
N 5.179372635 -1.5867312950000003 -3.0257599300000004
H 5.18999183 -1.5973504900000002 -2.0290666280000003
O 5.98810817 -2.3954668300000006 -4.987691776
C 5.98810817 -2.3954668300000006 -3.7295014560000004
H 6.78622451 -3.1935831700000006 -2.0290666280000003
N 6.796843705000001 -3.2042023650000004 -3.0257599300000004
H 7.414433730000001 -3.8217923900000006 -3.5238718440000003
H 1.7672576100000001 -1.02726739 -0.852564784
N 2.3848476350000003 -0.409677365 -1.350676698
H 2.39546683 -0.39905817 -2.34737
C 3.19358317 0.39905817 -0.646935172
O 3.19358317 0.39905817 0.611255148
H 3.99169951 1.19717451 -2.34737
N 4.002318705 1.207793705 -1.350676698
H 4.619908730000001 1.82538373 -0.852564784
H 4.56178261 -0.96914127 1.170868156
N 5.179372635 -1.586731295 1.66898007
H 5.18999183 -1.59735049 2.665673372
O 5.98810817 -2.39546683 -0.292951776
C 5.98810817 -2.39546683 0.965238544
H 6.78622451 -3.19358317 2.665673372
N 6.796843705000001 -3.204202365 1.66898007
H 7.414433730000001 -3.82179239 1.170868156
H 1.7672576100000001 -1.0272673899999998 3.8421752160000002
N 2.3848476350000003 -0.40967736499999974 3.3440633020000003
H 2.39546683 -0.3990581699999997 2.34737
C 3.19358317 0.39905817000000027 4.047804828
O 3.19358317 0.39905817000000027 5.305995148
H 3.99169951 1.1971745100000002 2.34737
N 4.002318705 1.2077937050000003 3.3440633020000003
H 4.619908730000001 1.8253837300000002 3.8421752160000002
