252

H -17.806307255 1.3509630432 1.77126365
H -16.930170855 1.2379567739 0.22212515
C -16.868654895 1.3396624163 1.28603085
O -16.309418895 2.5617445 1.74831345
O -16.080132135 0.2499591052 1.74831345
H -15.028768455 2.8039007913 0.22212515
C -14.971446765 2.6997735861 1.28603085
C -14.742160005 0.3766875643 1.28603085
H -14.623322355 0.3742660014 0.22212515
H -14.492833955 3.5061540363 1.77126365
H -14.283120455 -0.4409935128 1.77126365
O -14.192710635 1.6044199615 1.74831345
O -16.862130475 1.6044199615 -2.34993655
H -16.771720655 -0.4409935128 -2.32698635
H -16.562007155 3.5061540363 -2.32698635
H -16.431518755 0.3742660014 -3.87612485
C -16.312681105 0.3766875643 -2.81221915
C -16.083394345 2.6997735861 -2.81221915
H -16.026072655 2.8039007913 -3.87612485
O -14.974708975 0.2499591052 -2.34993655
O -14.745422215 2.5617445 -2.34993655
C -14.186186215 1.3396624163 -2.81221915
H -14.124670255 1.2379567739 -3.87612485
H -13.248533855 1.3509630432 -2.32698635
H -13.146007255 -1.3396624163 -0.9609030167
H -12.269870855 -1.4526686856 -2.5100415167
C -12.208354895 -1.3509630432 -1.4461358167
O -11.649118895 -0.1288809595 -0.9838532167
O -11.419832135 -2.4406663543 -0.9838532167
H -10.368468455 0.1132753318 -2.5100415167
C -10.311146765 0.0091481266 -1.4461358167
C -10.081860005 -2.3139378952 -1.4461358167
H -9.963022355 -2.3163594581 -2.5100415167
H -9.832533955 0.8155285768 -0.9609030167
H -9.622820455 -3.1316189723 -0.9609030167
O -9.532410635 -1.086205498 -0.9838532167
O -12.201830475 -1.086205498 3.1143967833
H -12.111420655 -3.1316189723 3.1373469833
H -11.901707155 0.8155285768 3.1373469833
H -11.771218755 -2.3163594581 1.5882084833
C -11.652381105 -2.3139378952 2.6521141833
C -11.423094345 0.0091481266 2.6521141833
H -11.365772655 0.1132753318 1.5882084833
O -10.314408975 -2.4406663543 3.1143967833
O -10.085122215 -0.1288809595 3.1143967833
C -9.525886215 -1.3509630432 2.6521141833
H -9.464370255 -1.4526686856 1.5882084833
H -8.588233855 -1.3396624163 3.1373469833
H -13.146007255 4.0415885027 4.5034303167
H -12.269870855 3.9285822334 2.9542918167
C -12.208354895 4.0302878758 4.0181975167
O -11.649118895 5.2523699595 4.4804801167
O -11.419832135 2.9405845647 4.4804801167
H -10.368468455 5.4945262509 2.9542918167
C -10.311146765 5.3903990456 4.0181975167
C -10.081860005 3.0673130238 4.0181975167
H -9.963022355 3.0648914609 2.9542918167
H -9.832533955 6.1967794958 4.5034303167
H -9.622820455 2.2496319467 4.5034303167
O -9.532410635 4.295045421 4.4804801167
O -12.201830475 4.295045421 0.3822301167
H -12.111420655 2.2496319467 0.4051803167
H -11.901707155 6.1967794958 0.4051803167
H -11.771218755 3.0648914609 -1.1439581833
C -11.652381105 3.0673130238 -0.0800524833
C -11.423094345 5.3903990456 -0.0800524833
H -11.365772655 5.4945262509 -1.1439581833
O -10.314408975 2.9405845647 0.3822301167
O -10.085122215 5.2523699595 0.3822301167
C -9.525886215 4.0302878758 -0.0800524833
H -9.464370255 3.9285822334 -1.1439581833
H -8.588233855 4.0415885027 0.4051803167
H -17.806307255000004 -4.03028787581324 -3.693069683300002
H -16.930170855000004 -4.14329414511324 -5.2422081833000025
C -16.868654895000002 -4.04158850271324 -4.178302483300002
O -16.309418895000004 -2.8195064190132397 -3.716019883300002
O -16.080132135000003 -5.13129181381324 -3.716019883300002
H -15.028768455000003 -2.57735012761324 -5.2422081833000025
C -14.971446765000003 -2.68147733291324 -4.178302483300002
C -14.742160005000002 -5.004563354713239 -4.178302483300002
H -14.623322355000003 -5.00698491761324 -5.2422081833000025
H -14.492833955000004 -1.8750968827132395 -3.693069683300002
H -14.283120455000002 -5.82224443181324 -3.693069683300002
O -14.192710635000003 -3.7768309575132397 -3.716019883300002
H -17.806307255000004 -4.03028787581324 4.5034303167
H -16.930170855000004 -4.14329414511324 2.9542918167
C -16.868654895000002 -4.04158850271324 4.0181975167
O -16.309418895000004 -2.8195064190132397 4.4804801167
O -16.080132135000003 -5.13129181381324 4.4804801167
H -15.028768455000002 -2.57735012761324 2.9542918167
C -14.971446765000003 -2.68147733291324 4.0181975167
C -14.742160005000002 -5.004563354713239 4.0181975167
H -14.623322355000003 -5.00698491761324 2.9542918167
H -14.492833955000002 -1.8750968827132395 4.5034303167
H -14.283120455000002 -5.82224443181324 4.5034303167
O -14.192710635000001 -3.7768309575132397 4.4804801167
O -16.862130475 -3.7768309575132397 0.3822301167
H -16.771720655000003 -5.82224443181324 0.4051803167
H -16.562007155000003 -1.8750968827132395 0.4051803167
H -16.431518755000003 -5.00698491761324 -1.1439581833
C -16.312681105000003 -5.004563354713239 -0.0800524833
C -16.083394345000002 -2.68147733291324 -0.0800524833
H -16.026072655000004 -2.57735012761324 -1.1439581833
O -14.974708975000002 -5.13129181381324 0.3822301167
O -14.745422215000001 -2.8195064190132397 0.3822301167
C -14.186186215000003 -4.04158850271324 -0.0800524833
H -14.124670255000002 -4.14329414511324 -1.1439581833
H -13.248533855000002 -4.03028787581324 0.4051803167
H -22.466607255 -1.3396624163 -0.9609030167
H -21.590470855 -1.4526686856 -2.5100415167
C -21.528954895 -1.3509630432 -1.4461358167
O -20.969718895 -0.1288809595 -0.9838532167
O -20.740432135 -2.4406663543 -0.9838532167
H -19.689068455 0.1132753318 -2.5100415167
C -19.631746765000003 0.0091481266 -1.4461358167
C -19.402460005000002 -2.3139378952 -1.4461358167
H -19.283622355 -2.3163594581 -2.5100415167
H -19.153133955 0.8155285768 -0.9609030167
H -18.943420455000002 -3.1316189723 -0.9609030167
O -18.853010635 -1.086205498 -0.9838532167
O -21.522430475 -1.086205498 3.1143967833
H -21.432020655000002 -3.1316189723 3.1373469833
H -21.222307155000003 0.8155285768 3.1373469833
H -21.091818755 -2.3163594581 1.5882084833
C -20.972981105000002 -2.3139378952 2.6521141833
C -20.743694345 0.0091481266 2.6521141833
H -20.686372655 0.1132753318 1.5882084833
O -19.635008974999998 -2.4406663543 3.1143967833
O -19.405722215 -0.1288809595 3.1143967833
C -18.846486215 -1.3509630432 2.6521141833
H -18.784970255 -1.4526686856 1.5882084833
H -17.908833855 -1.3396624163 3.1373469833
O -21.522430475 4.295045421 0.3822301167
H -21.432020655000002 2.2496319467 0.4051803167
H -21.222307155000003 6.1967794958 0.4051803167
H -21.091818755 3.0648914609 -1.1439581833
C -20.972981105000002 3.0673130238 -0.0800524833
C -20.743694345 5.3903990456 -0.0800524833
H -20.686372655 5.4945262509 -1.1439581833
O -19.635008974999998 2.9405845647 0.3822301167
O -19.405722215 5.2523699595 0.3822301167
C -18.846486215 4.0302878758 -0.0800524833
H -18.784970255 3.9285822334 -1.1439581833
H -17.908833855 4.0415885027 0.4051803167
H -17.806307255 1.350963043199999 -6.425236350000002
H -16.930170855 1.237956773899999 -7.974374850000002
C -16.868654895 1.339662416299999 -6.910469150000003
O -16.309418895 2.561744499999999 -6.448186550000003
O -16.080132135 0.24995910519999914 -6.448186550000003
H -15.028768455 2.803900791299999 -7.974374850000002
C -14.971446765 2.699773586099999 -6.910469150000003
C -14.742160005 0.3766875642999991 -6.910469150000003
H -14.623322355 0.3742660013999991 -7.974374850000002
H -14.492833955 3.506154036299999 -6.425236350000002
H -14.283120455 -0.4409935128000009 -6.425236350000002
O -14.192710635 1.6044199614999992 -6.448186550000003
O -12.201830475 -1.0862054980000009 -5.082103216700002
H -12.111420655 -3.131618972300001 -5.059153016700002
H -11.901707155 0.8155285767999991 -5.059153016700002
H -11.771218755 -2.316359458100001 -6.608291516700002
C -11.652381105 -2.313937895200001 -5.544385816700002
C -11.423094345 0.009148126599999131 -5.544385816700002
H -11.365772655 0.11327533179999913 -6.608291516700002
O -10.314408975 -2.4406663543000007 -5.082103216700002
O -10.085122215 -0.12888095950000086 -5.082103216700002
C -9.525886215 -1.3509630432000008 -5.544385816700002
H -9.464370255 -1.4526686856000008 -6.608291516700002
H -8.588233855 -1.3396624163000008 -5.059153016700002
H -13.146007255 4.041588502699999 -3.693069683300002
H -12.269870855 3.928582233399999 -5.2422081833000025
C -12.208354895 4.030287875799999 -4.178302483300002
O -11.649118895 5.252369959499999 -3.716019883300002
O -11.419832135 2.940584564699999 -3.716019883300002
H -10.368468455 5.494526250899999 -5.2422081833000025
C -10.311146765 5.390399045599999 -4.178302483300002
C -10.081860005 3.0673130237999993 -4.178302483300002
H -9.963022355 3.0648914608999993 -5.2422081833000025
H -9.832533955 6.1967794957999995 -3.693069683300002
H -9.622820455 2.249631946699999 -3.693069683300002
O -9.532410635 4.295045420999999 -3.716019883300002
O -16.862130475 1.604419961500001 5.846563450000002
H -16.771720655 -0.4409935127999991 5.869513650000002
H -16.562007155 3.5061540363000008 5.869513650000002
H -16.431518755 0.3742660014000009 4.320375150000002
C -16.312681105 0.3766875643000009 5.384280850000002
C -16.083394345 2.699773586100001 5.384280850000002
H -16.026072655 2.8039007913000007 4.320375150000002
O -14.974708975 0.24995910520000086 5.846563450000002
O -14.745422215 2.561744500000001 5.846563450000002
C -14.186186215 1.3396624163000008 5.384280850000002
H -14.124670255 1.2379567739000008 4.320375150000002
H -13.248533855 1.3509630432000008 5.869513650000002
H -13.146007255 -1.339662416299999 7.2355969833000024
H -12.269870855 -1.452668685599999 5.686458483300003
C -12.208354895 -1.350963043199999 6.750364183300002
O -11.649118895 -0.12888095949999914 7.212646783300002
O -11.419832135 -2.440666354299999 7.212646783300002
H -10.368468455 0.11327533180000088 5.686458483300003
C -10.311146765 0.00914812660000087 6.750364183300002
C -10.081860005 -2.313937895199999 6.750364183300002
H -9.963022355 -2.316359458099999 5.686458483300003
H -9.832533955 0.8155285768000009 7.2355969833000024
H -9.622820455 -3.131618972299999 7.2355969833000024
O -9.532410635 -1.086205497999999 7.212646783300002
H -17.806307255 6.73221396221324 -0.9609030167
H -16.930170855 6.61920769291324 -2.5100415167
C -16.868654895 6.72091333531324 -1.4461358167
O -16.309418895 7.94299541901324 -0.9838532167
O -16.080132135 5.631210024213241 -0.9838532167
H -15.028768454999998 8.18515171031324 -2.5100415167
C -14.971446765 8.08102450511324 -1.4461358167
C -14.742160004999999 5.757938483313239 -1.4461358167
H -14.623322354999999 5.75551692041324 -2.5100415167
H -14.492833954999998 8.88740495531324 -0.9609030167
H -14.283120454999999 4.94025740621324 -0.9609030167
O -14.192710634999997 6.98567088051324 -0.9838532167
O -16.862130474999997 6.98567088051324 3.1143967833
H -16.771720655 4.94025740621324 3.1373469833
H -16.562007155 8.88740495531324 3.1373469833
H -16.431518755 5.75551692041324 1.5882084833
C -16.312681105 5.757938483313239 2.6521141833
C -16.083394345 8.08102450511324 2.6521141833
H -16.026072655 8.18515171031324 1.5882084833
O -14.974708974999999 5.631210024213241 3.1143967833
O -14.745422214999998 7.94299541901324 3.1143967833
C -14.186186215 6.72091333531324 2.6521141833
H -14.124670254999998 6.61920769291324 1.5882084833
H -13.248533854999998 6.73221396221324 3.1373469833
H -8.485707255 1.3509630432 1.77126365
H -7.609570854999999 1.2379567739 0.22212515
C -7.548054894999998 1.3396624163 1.28603085
O -6.988818895 2.5617445 1.74831345
O -6.759532134999999 0.2499591052 1.74831345
H -5.708168454999999 2.8039007913 0.22212515
C -5.650846764999999 2.6997735861 1.28603085
C -5.421560005 0.3766875643 1.28603085
H -5.302722355 0.3742660014 0.22212515
H -5.172233954999999 3.5061540363 1.77126365
H -4.962520455 -0.4409935128 1.77126365
O -4.8721106349999985 1.6044199615 1.74831345
O -7.541530475 1.6044199615 -2.34993655
H -7.451120654999999 -0.4409935128 -2.32698635
H -7.241407154999999 3.5061540363 -2.32698635
H -7.110918754999998 0.3742660014 -3.87612485
C -6.992081104999999 0.3766875643 -2.81221915
C -6.762794344999998 2.6997735861 -2.81221915
H -6.7054726549999994 2.8039007913 -3.87612485
O -5.654108975 0.2499591052 -2.34993655
O -5.424822214999999 2.5617445 -2.34993655
C -4.865586214999999 1.3396624163 -2.81221915
H -4.804070254999999 1.2379567739 -3.87612485
H -3.927933854999999 1.3509630432 -2.32698635
